* NGSPICE file created from cbx_1__4_.ext - technology: sky130A

* Black-box entry subcircuit for sky130_ef_sc_hd__decap_12 abstract view
.subckt sky130_ef_sc_hd__decap_12 VGND VNB VPB VPWR
.ends

* Black-box entry subcircuit for sky130_fd_sc_hd__tapvpwrvgnd_1 abstract view
.subckt sky130_fd_sc_hd__tapvpwrvgnd_1 VGND VPWR
.ends

* Black-box entry subcircuit for sky130_fd_sc_hd__decap_8 abstract view
.subckt sky130_fd_sc_hd__decap_8 VGND VNB VPB VPWR
.ends

* Black-box entry subcircuit for sky130_fd_sc_hd__decap_4 abstract view
.subckt sky130_fd_sc_hd__decap_4 VGND VNB VPB VPWR
.ends

* Black-box entry subcircuit for sky130_fd_sc_hd__inv_2 abstract view
.subckt sky130_fd_sc_hd__inv_2 A VGND VNB VPB VPWR Y
.ends

* Black-box entry subcircuit for sky130_fd_sc_hd__fill_2 abstract view
.subckt sky130_fd_sc_hd__fill_2 VGND VNB VPB VPWR
.ends

* Black-box entry subcircuit for sky130_fd_sc_hd__diode_2 abstract view
.subckt sky130_fd_sc_hd__diode_2 DIODE VGND VNB VPB VPWR
.ends

* Black-box entry subcircuit for sky130_fd_sc_hd__decap_6 abstract view
.subckt sky130_fd_sc_hd__decap_6 VGND VNB VPB VPWR
.ends

* Black-box entry subcircuit for sky130_fd_sc_hd__fill_1 abstract view
.subckt sky130_fd_sc_hd__fill_1 VGND VNB VPB VPWR
.ends

* Black-box entry subcircuit for sky130_fd_sc_hd__conb_1 abstract view
.subckt sky130_fd_sc_hd__conb_1 VGND VNB VPB VPWR HI LO
.ends

* Black-box entry subcircuit for sky130_fd_sc_hd__ebufn_4 abstract view
.subckt sky130_fd_sc_hd__ebufn_4 A TE_B VGND VNB VPB VPWR Z
.ends

* Black-box entry subcircuit for sky130_fd_sc_hd__ebufn_2 abstract view
.subckt sky130_fd_sc_hd__ebufn_2 A TE_B VGND VNB VPB VPWR Z
.ends

* Black-box entry subcircuit for sky130_fd_sc_hd__clkbuf_1 abstract view
.subckt sky130_fd_sc_hd__clkbuf_1 A VGND VNB VPB VPWR X
.ends

* Black-box entry subcircuit for sky130_fd_sc_hd__decap_3 abstract view
.subckt sky130_fd_sc_hd__decap_3 VGND VNB VPB VPWR
.ends

* Black-box entry subcircuit for sky130_fd_sc_hd__buf_2 abstract view
.subckt sky130_fd_sc_hd__buf_2 A VGND VNB VPB VPWR X
.ends

* Black-box entry subcircuit for sky130_fd_sc_hd__dfrtp_1 abstract view
.subckt sky130_fd_sc_hd__dfrtp_1 CLK D RESET_B VGND VNB VPB VPWR Q
.ends

* Black-box entry subcircuit for sky130_fd_sc_hd__buf_4 abstract view
.subckt sky130_fd_sc_hd__buf_4 A VGND VNB VPB VPWR X
.ends

* Black-box entry subcircuit for sky130_fd_sc_hd__ebufn_1 abstract view
.subckt sky130_fd_sc_hd__ebufn_1 A TE_B VGND VNB VPB VPWR Z
.ends

* Black-box entry subcircuit for sky130_fd_sc_hd__clkbuf_2 abstract view
.subckt sky130_fd_sc_hd__clkbuf_2 A VGND VNB VPB VPWR X
.ends

* Black-box entry subcircuit for sky130_fd_sc_hd__dfrtp_4 abstract view
.subckt sky130_fd_sc_hd__dfrtp_4 CLK D RESET_B VGND VNB VPB VPWR Q
.ends

* Black-box entry subcircuit for sky130_fd_sc_hd__dfrtp_2 abstract view
.subckt sky130_fd_sc_hd__dfrtp_2 CLK D RESET_B VGND VNB VPB VPWR Q
.ends

* Black-box entry subcircuit for sky130_fd_sc_hd__dlymetal6s2s_1 abstract view
.subckt sky130_fd_sc_hd__dlymetal6s2s_1 A VGND VNB VPB VPWR X
.ends

* Black-box entry subcircuit for sky130_fd_sc_hd__clkbuf_16 abstract view
.subckt sky130_fd_sc_hd__clkbuf_16 A VGND VNB VPB VPWR X
.ends

* Black-box entry subcircuit for sky130_fd_sc_hd__clkinv_2 abstract view
.subckt sky130_fd_sc_hd__clkinv_2 A VGND VNB VPB VPWR Y
.ends

* Black-box entry subcircuit for sky130_fd_sc_hd__clkbuf_4 abstract view
.subckt sky130_fd_sc_hd__clkbuf_4 A VGND VNB VPB VPWR X
.ends

.subckt cbx_1__4_ bottom_grid_top_width_0_height_0_subtile_0__pin_I_0_ bottom_grid_top_width_0_height_0_subtile_0__pin_I_4_
+ bottom_grid_top_width_0_height_0_subtile_0__pin_I_8_ bottom_grid_top_width_0_height_0_subtile_0__pin_clk_0_
+ ccff_head ccff_tail chanx_left_in[0] chanx_left_in[10] chanx_left_in[11] chanx_left_in[12]
+ chanx_left_in[13] chanx_left_in[14] chanx_left_in[15] chanx_left_in[16] chanx_left_in[17]
+ chanx_left_in[18] chanx_left_in[1] chanx_left_in[2] chanx_left_in[3] chanx_left_in[4]
+ chanx_left_in[5] chanx_left_in[6] chanx_left_in[7] chanx_left_in[8] chanx_left_in[9]
+ chanx_left_out[0] chanx_left_out[10] chanx_left_out[11] chanx_left_out[12] chanx_left_out[13]
+ chanx_left_out[14] chanx_left_out[15] chanx_left_out[16] chanx_left_out[17] chanx_left_out[18]
+ chanx_left_out[1] chanx_left_out[2] chanx_left_out[3] chanx_left_out[4] chanx_left_out[5]
+ chanx_left_out[6] chanx_left_out[7] chanx_left_out[8] chanx_left_out[9] chanx_right_in[0]
+ chanx_right_in[10] chanx_right_in[11] chanx_right_in[12] chanx_right_in[13] chanx_right_in[14]
+ chanx_right_in[15] chanx_right_in[16] chanx_right_in[17] chanx_right_in[18] chanx_right_in[1]
+ chanx_right_in[2] chanx_right_in[3] chanx_right_in[4] chanx_right_in[5] chanx_right_in[6]
+ chanx_right_in[7] chanx_right_in[8] chanx_right_in[9] chanx_right_out[0] chanx_right_out[10]
+ chanx_right_out[11] chanx_right_out[12] chanx_right_out[13] chanx_right_out[14]
+ chanx_right_out[15] chanx_right_out[16] chanx_right_out[17] chanx_right_out[18]
+ chanx_right_out[1] chanx_right_out[2] chanx_right_out[3] chanx_right_out[4] chanx_right_out[5]
+ chanx_right_out[6] chanx_right_out[7] chanx_right_out[8] chanx_right_out[9] pReset
+ prog_clk top_grid_bottom_width_0_height_0_subtile_0__pin_outpad_0_ top_grid_bottom_width_0_height_0_subtile_1__pin_outpad_0_
+ top_grid_bottom_width_0_height_0_subtile_2__pin_outpad_0_ top_grid_bottom_width_0_height_0_subtile_3__pin_outpad_0_
+ top_grid_bottom_width_0_height_0_subtile_4__pin_outpad_0_ top_grid_bottom_width_0_height_0_subtile_5__pin_outpad_0_
+ top_grid_bottom_width_0_height_0_subtile_6__pin_outpad_0_ top_grid_bottom_width_0_height_0_subtile_7__pin_outpad_0_
+ vccd1 vssd1
XFILLER_39_255 vssd1 vssd1 vccd1 vccd1 sky130_ef_sc_hd__decap_12
XTAP_177 vssd1 vccd1 sky130_fd_sc_hd__tapvpwrvgnd_1
XTAP_188 vssd1 vccd1 sky130_fd_sc_hd__tapvpwrvgnd_1
XTAP_199 vssd1 vccd1 sky130_fd_sc_hd__tapvpwrvgnd_1
XFILLER_52_29 vssd1 vssd1 vccd1 vccd1 sky130_ef_sc_hd__decap_12
XFILLER_22_177 vssd1 vssd1 vccd1 vccd1 sky130_fd_sc_hd__decap_8
XFILLER_22_111 vssd1 vssd1 vccd1 vccd1 sky130_fd_sc_hd__decap_4
XFILLER_60_217 vssd1 vssd1 vccd1 vccd1 sky130_fd_sc_hd__decap_4
XFILLER_45_225 vssd1 vssd1 vccd1 vccd1 sky130_ef_sc_hd__decap_12
XFILLER_26_85 vssd1 vssd1 vccd1 vccd1 sky130_ef_sc_hd__decap_12
XFILLER_26_41 vssd1 vssd1 vccd1 vccd1 sky130_ef_sc_hd__decap_12
X_432_ net33 vssd1 vssd1 vccd1 vccd1 mux_bottom_ipin_3.INVTX1_3_.out sky130_fd_sc_hd__inv_2
X_501_ _077_ vssd1 vssd1 vccd1 vccd1 _040_ sky130_fd_sc_hd__inv_2
X_363_ mem_bottom_ipin_3.DFFR_2_.Q vssd1 vssd1 vccd1 vccd1 _119_ sky130_fd_sc_hd__inv_2
X_294_ mem_top_ipin_1.DFFR_0_.Q vssd1 vssd1 vccd1 vccd1 _198_ sky130_fd_sc_hd__inv_2
XFILLER_13_166 vssd1 vssd1 vccd1 vccd1 sky130_fd_sc_hd__fill_2
XFILLER_54_9 vssd1 vssd1 vccd1 vccd1 sky130_ef_sc_hd__decap_12
XANTENNA_output56_A net56 vssd1 vssd1 vccd1 vccd1 sky130_fd_sc_hd__diode_2
XFILLER_51_217 vssd1 vssd1 vccd1 vccd1 sky130_fd_sc_hd__decap_6
XFILLER_44_280 vssd1 vssd1 vccd1 vccd1 sky130_ef_sc_hd__decap_12
XANTENNA__304__A mem_top_ipin_0.DFFR_1_.Q vssd1 vssd1 vccd1 vccd1 sky130_fd_sc_hd__diode_2
XFILLER_59_317 vssd1 vssd1 vccd1 vccd1 sky130_ef_sc_hd__decap_12
XFILLER_63_28 vssd1 vssd1 vccd1 vccd1 sky130_ef_sc_hd__decap_12
XFILLER_63_17 vssd1 vssd1 vccd1 vccd1 sky130_fd_sc_hd__decap_8
XFILLER_27_236 vssd1 vssd1 vccd1 vccd1 sky130_fd_sc_hd__decap_4
XFILLER_27_225 vssd1 vssd1 vccd1 vccd1 sky130_fd_sc_hd__fill_2
XFILLER_2_357 vssd1 vssd1 vccd1 vccd1 sky130_fd_sc_hd__decap_6
XFILLER_12_65 vssd1 vssd1 vccd1 vccd1 sky130_ef_sc_hd__decap_12
XFILLER_18_247 vssd1 vssd1 vccd1 vccd1 sky130_fd_sc_hd__decap_4
XFILLER_41_272 vssd1 vssd1 vccd1 vccd1 sky130_fd_sc_hd__decap_4
XFILLER_41_261 vssd1 vssd1 vccd1 vccd1 sky130_fd_sc_hd__decap_6
X_415_ net37 vssd1 vssd1 vccd1 vccd1 mux_bottom_ipin_1.INVTX1_5_.out sky130_fd_sc_hd__inv_2
X_346_ mem_bottom_ipin_4.DFFR_0_.Q vssd1 vssd1 vccd1 vccd1 _139_ sky130_fd_sc_hd__inv_2
X_277_ mem_top_ipin_2.DFFR_5_.Q vssd1 vssd1 vccd1 vccd1 _201_ sky130_fd_sc_hd__inv_2
XFILLER_56_309 vssd1 vssd1 vccd1 vccd1 sky130_ef_sc_hd__decap_12
XFILLER_49_361 vssd1 vssd1 vccd1 vccd1 sky130_ef_sc_hd__decap_12
XFILLER_24_239 vssd1 vssd1 vccd1 vccd1 sky130_fd_sc_hd__decap_4
XFILLER_32_250 vssd1 vssd1 vccd1 vccd1 sky130_fd_sc_hd__fill_2
XFILLER_59_169 vssd1 vssd1 vccd1 vccd1 sky130_ef_sc_hd__decap_12
XFILLER_59_125 vssd1 vssd1 vccd1 vccd1 sky130_ef_sc_hd__decap_12
XFILLER_38_309 vssd1 vssd1 vccd1 vccd1 sky130_ef_sc_hd__decap_12
XFILLER_2_154 vssd1 vssd1 vccd1 vccd1 sky130_fd_sc_hd__decap_8
XFILLER_64_71 vssd1 vssd1 vccd1 vccd1 sky130_fd_sc_hd__fill_2
XFILLER_48_83 vssd1 vssd1 vccd1 vccd1 sky130_fd_sc_hd__fill_1
XFILLER_0_57 vssd1 vssd1 vccd1 vccd1 sky130_fd_sc_hd__fill_2
XFILLER_17_9 vssd1 vssd1 vccd1 vccd1 sky130_ef_sc_hd__decap_12
XFILLER_9_33 vssd1 vssd1 vccd1 vccd1 sky130_ef_sc_hd__decap_12
X_329_ mem_bottom_ipin_6.DFFR_4_.Q vssd1 vssd1 vccd1 vccd1 _152_ sky130_fd_sc_hd__inv_2
XFILLER_50_3 vssd1 vssd1 vccd1 vccd1 sky130_fd_sc_hd__fill_2
XFILLER_56_139 vssd1 vssd1 vccd1 vccd1 sky130_fd_sc_hd__fill_1
XFILLER_64_183 vssd1 vssd1 vccd1 vccd1 sky130_fd_sc_hd__fill_2
XFILLER_52_345 vssd1 vssd1 vccd1 vccd1 sky130_ef_sc_hd__decap_12
XFILLER_52_301 vssd1 vssd1 vccd1 vccd1 sky130_fd_sc_hd__decap_6
XFILLER_12_209 vssd1 vssd1 vccd1 vccd1 sky130_fd_sc_hd__decap_4
XFILLER_60_29 vssd1 vssd1 vccd1 vccd1 sky130_ef_sc_hd__decap_12
X_731__100 vssd1 vssd1 vccd1 vccd1 net100 _731__100/LO sky130_fd_sc_hd__conb_1
XFILLER_20_286 vssd1 vssd1 vccd1 vccd1 sky130_fd_sc_hd__decap_4
XFILLER_20_253 vssd1 vssd1 vccd1 vccd1 sky130_fd_sc_hd__fill_2
XFILLER_62_109 vssd1 vssd1 vccd1 vccd1 sky130_ef_sc_hd__decap_12
XFILLER_55_161 vssd1 vssd1 vccd1 vccd1 sky130_fd_sc_hd__decap_6
XFILLER_18_53 vssd1 vssd1 vccd1 vccd1 sky130_ef_sc_hd__decap_12
XFILLER_18_75 vssd1 vssd1 vccd1 vccd1 sky130_fd_sc_hd__decap_4
X_680_ mux_bottom_ipin_4.mux_2level_tapbuf_basis_input3_mem3_1_out _128_ vssd1 vssd1
+ vccd1 vccd1 mux_bottom_ipin_4.mux_2level_tapbuf_basis_input3_mem3_3_out sky130_fd_sc_hd__ebufn_4
XFILLER_34_85 vssd1 vssd1 vccd1 vccd1 sky130_ef_sc_hd__decap_12
XFILLER_34_41 vssd1 vssd1 vccd1 vccd1 sky130_ef_sc_hd__decap_12
XFILLER_11_220 vssd1 vssd1 vccd1 vccd1 sky130_fd_sc_hd__decap_4
XFILLER_11_231 vssd1 vssd1 vccd1 vccd1 sky130_fd_sc_hd__decap_6
XTAP_507 vssd1 vccd1 sky130_fd_sc_hd__tapvpwrvgnd_1
XFILLER_7_279 vssd1 vssd1 vccd1 vccd1 sky130_fd_sc_hd__fill_1
XFILLER_11_297 vssd1 vssd1 vccd1 vccd1 sky130_fd_sc_hd__decap_4
XTAP_529 vssd1 vccd1 sky130_fd_sc_hd__tapvpwrvgnd_1
XFILLER_59_93 vssd1 vssd1 vccd1 vccd1 sky130_ef_sc_hd__decap_12
XTAP_518 vssd1 vccd1 sky130_fd_sc_hd__tapvpwrvgnd_1
XFILLER_38_139 vssd1 vssd1 vccd1 vccd1 sky130_fd_sc_hd__fill_1
XANTENNA__402__A mem_bottom_ipin_0.DFFR_2_.Q vssd1 vssd1 vccd1 vccd1 sky130_fd_sc_hd__diode_2
XFILLER_34_345 vssd1 vssd1 vccd1 vccd1 sky130_ef_sc_hd__decap_12
XFILLER_19_353 vssd1 vssd1 vccd1 vccd1 sky130_ef_sc_hd__decap_12
XFILLER_39_19 vssd1 vssd1 vccd1 vccd1 sky130_ef_sc_hd__decap_12
XFILLER_44_109 vssd1 vssd1 vccd1 vccd1 sky130_ef_sc_hd__decap_12
XFILLER_37_161 vssd1 vssd1 vccd1 vccd1 sky130_fd_sc_hd__decap_6
XFILLER_52_197 vssd1 vssd1 vccd1 vccd1 sky130_ef_sc_hd__decap_12
XFILLER_52_153 vssd1 vssd1 vccd1 vccd1 sky130_ef_sc_hd__decap_12
XFILLER_20_65 vssd1 vssd1 vccd1 vccd1 sky130_ef_sc_hd__decap_12
X_732_ mux_bottom_ipin_2.INVTX1_4_.out _180_ vssd1 vssd1 vccd1 vccd1 mux_top_ipin_0.mux_2level_tapbuf_basis_input3_mem3_1_out
+ sky130_fd_sc_hd__ebufn_2
X_594_ net30 vssd1 vssd1 vccd1 vccd1 net55 sky130_fd_sc_hd__clkbuf_1
XFILLER_45_51 vssd1 vssd1 vccd1 vccd1 sky130_fd_sc_hd__decap_4
XFILLER_31_304 vssd1 vssd1 vccd1 vccd1 sky130_ef_sc_hd__decap_12
XANTENNA_input18_A chanx_left_in[7] vssd1 vssd1 vccd1 vccd1 sky130_fd_sc_hd__diode_2
XFILLER_28_194 vssd1 vssd1 vccd1 vccd1 sky130_fd_sc_hd__fill_2
XFILLER_28_172 vssd1 vssd1 vccd1 vccd1 sky130_fd_sc_hd__decap_4
X_663_ mux_bottom_ipin_2.INVTX1_2_.out _111_ vssd1 vssd1 vccd1 vccd1 mux_bottom_ipin_2.mux_2level_tapbuf_basis_input3_mem3_0_out
+ sky130_fd_sc_hd__ebufn_2
XFILLER_31_348 vssd1 vssd1 vccd1 vccd1 sky130_ef_sc_hd__decap_12
XFILLER_31_337 vssd1 vssd1 vccd1 vccd1 sky130_fd_sc_hd__fill_2
XANTENNA_output86_A net86 vssd1 vssd1 vccd1 vccd1 sky130_fd_sc_hd__diode_2
XTAP_348 vssd1 vccd1 sky130_fd_sc_hd__tapvpwrvgnd_1
XTAP_337 vssd1 vccd1 sky130_fd_sc_hd__tapvpwrvgnd_1
XTAP_326 vssd1 vccd1 sky130_fd_sc_hd__tapvpwrvgnd_1
XTAP_315 vssd1 vccd1 sky130_fd_sc_hd__tapvpwrvgnd_1
XTAP_304 vssd1 vccd1 sky130_fd_sc_hd__tapvpwrvgnd_1
XFILLER_3_271 vssd1 vssd1 vccd1 vccd1 sky130_fd_sc_hd__decap_4
XTAP_359 vssd1 vccd1 sky130_fd_sc_hd__tapvpwrvgnd_1
XFILLER_26_109 vssd1 vssd1 vccd1 vccd1 sky130_fd_sc_hd__fill_1
XANTENNA_clkbuf_3_1__f_prog_clk_A clknet_0_prog_clk vssd1 vssd1 vccd1 vccd1 sky130_fd_sc_hd__diode_2
XFILLER_13_3 vssd1 vssd1 vccd1 vccd1 sky130_ef_sc_hd__decap_12
XFILLER_34_197 vssd1 vssd1 vccd1 vccd1 sky130_ef_sc_hd__decap_12
XFILLER_34_186 vssd1 vssd1 vccd1 vccd1 sky130_fd_sc_hd__decap_8
XFILLER_34_153 vssd1 vssd1 vccd1 vccd1 sky130_ef_sc_hd__decap_12
XANTENNA__307__A mem_top_ipin_0.DFFR_2_.Q vssd1 vssd1 vccd1 vccd1 sky130_fd_sc_hd__diode_2
XFILLER_57_223 vssd1 vssd1 vccd1 vccd1 sky130_fd_sc_hd__fill_1
XFILLER_15_21 vssd1 vssd1 vccd1 vccd1 sky130_ef_sc_hd__decap_12
XFILLER_40_189 vssd1 vssd1 vccd1 vccd1 sky130_fd_sc_hd__decap_6
XFILLER_31_53 vssd1 vssd1 vccd1 vccd1 sky130_fd_sc_hd__decap_3
XFILLER_13_337 vssd1 vssd1 vccd1 vccd1 sky130_ef_sc_hd__decap_12
Xoutput75 net75 vssd1 vssd1 vccd1 vccd1 chanx_right_out[1] sky130_fd_sc_hd__buf_2
Xoutput42 net42 vssd1 vssd1 vccd1 vccd1 bottom_grid_top_width_0_height_0_subtile_0__pin_I_4_
+ sky130_fd_sc_hd__buf_2
Xoutput64 net64 vssd1 vssd1 vccd1 vccd1 chanx_left_out[9] sky130_fd_sc_hd__buf_2
Xoutput53 net53 vssd1 vssd1 vccd1 vccd1 chanx_left_out[16] sky130_fd_sc_hd__buf_2
Xoutput86 net86 vssd1 vssd1 vccd1 vccd1 top_grid_bottom_width_0_height_0_subtile_2__pin_outpad_0_
+ sky130_fd_sc_hd__buf_2
XFILLER_63_237 vssd1 vssd1 vccd1 vccd1 sky130_ef_sc_hd__decap_12
XFILLER_56_83 vssd1 vssd1 vccd1 vccd1 sky130_fd_sc_hd__fill_1
XFILLER_48_289 vssd1 vssd1 vccd1 vccd1 sky130_ef_sc_hd__decap_12
XFILLER_48_245 vssd1 vssd1 vccd1 vccd1 sky130_fd_sc_hd__decap_6
X_715_ mux_bottom_ipin_5.INVTX1_2_.out _163_ vssd1 vssd1 vccd1 vccd1 mux_bottom_ipin_6.mux_2level_tapbuf_basis_input3_mem3_0_out
+ sky130_fd_sc_hd__ebufn_2
X_646_ mux_bottom_ipin_1.INVTX1_5_.out _094_ vssd1 vssd1 vccd1 vccd1 mux_bottom_ipin_1.mux_2level_tapbuf_basis_input3_mem3_1_out
+ sky130_fd_sc_hd__ebufn_2
X_577_ clknet_3_2__leaf_prog_clk mem_top_ipin_3.DFFR_3_.Q _067_ vssd1 vssd1 vccd1
+ vccd1 mem_top_ipin_3.DFFR_4_.Q sky130_fd_sc_hd__dfrtp_1
XFILLER_16_197 vssd1 vssd1 vccd1 vccd1 sky130_fd_sc_hd__decap_4
XFILLER_8_363 vssd1 vssd1 vccd1 vccd1 sky130_fd_sc_hd__fill_1
XFILLER_8_385 vssd1 vssd1 vccd1 vccd1 sky130_fd_sc_hd__fill_1
XFILLER_39_223 vssd1 vssd1 vccd1 vccd1 sky130_fd_sc_hd__fill_1
XTAP_167 vssd1 vccd1 sky130_fd_sc_hd__tapvpwrvgnd_1
XTAP_156 vssd1 vccd1 sky130_fd_sc_hd__tapvpwrvgnd_1
XTAP_134 vssd1 vccd1 sky130_fd_sc_hd__tapvpwrvgnd_1
XTAP_145 vssd1 vccd1 sky130_fd_sc_hd__tapvpwrvgnd_1
XTAP_178 vssd1 vccd1 sky130_fd_sc_hd__tapvpwrvgnd_1
XTAP_189 vssd1 vccd1 sky130_fd_sc_hd__tapvpwrvgnd_1
XFILLER_39_267 vssd1 vssd1 vccd1 vccd1 sky130_ef_sc_hd__decap_12
XFILLER_39_245 vssd1 vssd1 vccd1 vccd1 sky130_fd_sc_hd__fill_1
XFILLER_10_318 vssd1 vssd1 vccd1 vccd1 sky130_ef_sc_hd__decap_12
X_500_ _072_ vssd1 vssd1 vccd1 vccd1 _077_ sky130_fd_sc_hd__buf_4
XFILLER_53_281 vssd1 vssd1 vccd1 vccd1 sky130_ef_sc_hd__decap_12
XFILLER_45_237 vssd1 vssd1 vccd1 vccd1 sky130_ef_sc_hd__decap_12
X_362_ mem_bottom_ipin_3.DFFR_0_.Q vssd1 vssd1 vccd1 vccd1 _125_ sky130_fd_sc_hd__inv_2
XFILLER_26_97 vssd1 vssd1 vccd1 vccd1 sky130_ef_sc_hd__decap_12
XFILLER_26_53 vssd1 vssd1 vccd1 vccd1 sky130_ef_sc_hd__decap_12
X_431_ net20 vssd1 vssd1 vccd1 vccd1 mux_bottom_ipin_3.INVTX1_4_.out sky130_fd_sc_hd__inv_2
XFILLER_13_134 vssd1 vssd1 vccd1 vccd1 sky130_fd_sc_hd__decap_4
XFILLER_42_85 vssd1 vssd1 vccd1 vccd1 sky130_ef_sc_hd__decap_12
XFILLER_42_41 vssd1 vssd1 vccd1 vccd1 sky130_ef_sc_hd__decap_12
XFILLER_9_138 vssd1 vssd1 vccd1 vccd1 sky130_fd_sc_hd__decap_4
X_293_ mem_top_ipin_1.DFFR_4_.Q vssd1 vssd1 vccd1 vccd1 _188_ sky130_fd_sc_hd__inv_2
XFILLER_47_9 vssd1 vssd1 vccd1 vccd1 sky130_fd_sc_hd__decap_4
XANTENNA__410__A net2 vssd1 vssd1 vccd1 vccd1 sky130_fd_sc_hd__diode_2
XFILLER_3_57 vssd1 vssd1 vccd1 vccd1 sky130_ef_sc_hd__decap_12
X_629_ net13 vssd1 vssd1 vccd1 vccd1 net76 sky130_fd_sc_hd__clkbuf_1
XFILLER_44_292 vssd1 vssd1 vccd1 vccd1 sky130_ef_sc_hd__decap_12
XFILLER_59_329 vssd1 vssd1 vccd1 vccd1 sky130_fd_sc_hd__decap_6
XFILLER_35_281 vssd1 vssd1 vccd1 vccd1 sky130_ef_sc_hd__decap_12
XFILLER_12_77 vssd1 vssd1 vccd1 vccd1 sky130_fd_sc_hd__decap_6
X_414_ mux_bottom_ipin_1.mux_2level_tapbuf_basis_input3_mem3_3_out vssd1 vssd1 vccd1
+ vccd1 net85 sky130_fd_sc_hd__inv_2
X_345_ mem_bottom_ipin_4.DFFR_3_.Q vssd1 vssd1 vccd1 vccd1 _136_ sky130_fd_sc_hd__inv_2
X_276_ mem_top_ipin_2.DFFR_1_.Q vssd1 vssd1 vccd1 vccd1 _206_ sky130_fd_sc_hd__inv_2
XANTENNA__405__A net5 vssd1 vssd1 vccd1 vccd1 sky130_fd_sc_hd__diode_2
XFILLER_5_141 vssd1 vssd1 vccd1 vccd1 sky130_fd_sc_hd__decap_4
XFILLER_49_384 vssd1 vssd1 vccd1 vccd1 sky130_fd_sc_hd__fill_2
XFILLER_49_373 vssd1 vssd1 vccd1 vccd1 sky130_fd_sc_hd__decap_8
XFILLER_64_365 vssd1 vssd1 vccd1 vccd1 sky130_fd_sc_hd__fill_2
XFILLER_17_281 vssd1 vssd1 vccd1 vccd1 sky130_fd_sc_hd__fill_2
XFILLER_59_137 vssd1 vssd1 vccd1 vccd1 sky130_ef_sc_hd__decap_12
XFILLER_58_29 vssd1 vssd1 vccd1 vccd1 sky130_ef_sc_hd__decap_12
XFILLER_23_295 vssd1 vssd1 vccd1 vccd1 sky130_fd_sc_hd__decap_4
XFILLER_23_262 vssd1 vssd1 vccd1 vccd1 sky130_fd_sc_hd__decap_4
XFILLER_23_98 vssd1 vssd1 vccd1 vccd1 sky130_fd_sc_hd__decap_4
XFILLER_64_83 vssd1 vssd1 vccd1 vccd1 sky130_fd_sc_hd__fill_1
XFILLER_64_50 vssd1 vssd1 vccd1 vccd1 sky130_fd_sc_hd__fill_2
XFILLER_46_365 vssd1 vssd1 vccd1 vccd1 sky130_ef_sc_hd__decap_12
XFILLER_0_69 vssd1 vssd1 vccd1 vccd1 sky130_fd_sc_hd__decap_4
X_328_ mem_bottom_ipin_6.DFFR_1_.Q vssd1 vssd1 vccd1 vccd1 _154_ sky130_fd_sc_hd__inv_2
X_259_ _072_ vssd1 vssd1 vccd1 vccd1 _070_ sky130_fd_sc_hd__inv_2
XFILLER_9_45 vssd1 vssd1 vccd1 vccd1 sky130_fd_sc_hd__decap_8
XFILLER_43_3 vssd1 vssd1 vccd1 vccd1 sky130_ef_sc_hd__decap_12
XFILLER_49_181 vssd1 vssd1 vccd1 vccd1 sky130_ef_sc_hd__decap_12
XFILLER_64_195 vssd1 vssd1 vccd1 vccd1 sky130_fd_sc_hd__fill_1
XFILLER_52_357 vssd1 vssd1 vccd1 vccd1 sky130_fd_sc_hd__decap_6
XFILLER_20_265 vssd1 vssd1 vccd1 vccd1 sky130_fd_sc_hd__decap_8
XFILLER_18_10 vssd1 vssd1 vccd1 vccd1 sky130_ef_sc_hd__decap_12
XFILLER_43_335 vssd1 vssd1 vccd1 vccd1 sky130_fd_sc_hd__fill_1
XFILLER_28_365 vssd1 vssd1 vccd1 vccd1 sky130_ef_sc_hd__decap_12
XFILLER_18_65 vssd1 vssd1 vccd1 vccd1 sky130_fd_sc_hd__fill_1
XFILLER_50_41 vssd1 vssd1 vccd1 vccd1 sky130_ef_sc_hd__decap_12
XFILLER_34_97 vssd1 vssd1 vccd1 vccd1 sky130_ef_sc_hd__decap_12
XFILLER_34_53 vssd1 vssd1 vccd1 vccd1 sky130_ef_sc_hd__decap_12
XFILLER_7_225 vssd1 vssd1 vccd1 vccd1 sky130_fd_sc_hd__fill_2
XFILLER_11_287 vssd1 vssd1 vccd1 vccd1 sky130_fd_sc_hd__decap_6
XTAP_519 vssd1 vccd1 sky130_fd_sc_hd__tapvpwrvgnd_1
XTAP_508 vssd1 vccd1 sky130_fd_sc_hd__tapvpwrvgnd_1
XFILLER_50_85 vssd1 vssd1 vccd1 vccd1 sky130_ef_sc_hd__decap_12
XFILLER_19_365 vssd1 vssd1 vccd1 vccd1 sky130_ef_sc_hd__decap_12
XFILLER_19_321 vssd1 vssd1 vccd1 vccd1 sky130_fd_sc_hd__decap_4
XFILLER_46_195 vssd1 vssd1 vccd1 vccd1 sky130_fd_sc_hd__fill_1
XFILLER_34_357 vssd1 vssd1 vccd1 vccd1 sky130_fd_sc_hd__decap_6
XFILLER_55_19 vssd1 vssd1 vccd1 vccd1 sky130_ef_sc_hd__decap_12
XFILLER_52_121 vssd1 vssd1 vccd1 vccd1 sky130_ef_sc_hd__decap_12
XFILLER_25_335 vssd1 vssd1 vccd1 vccd1 sky130_fd_sc_hd__fill_1
XFILLER_25_313 vssd1 vssd1 vccd1 vccd1 sky130_fd_sc_hd__decap_4
XFILLER_52_165 vssd1 vssd1 vccd1 vccd1 sky130_ef_sc_hd__decap_12
XFILLER_25_379 vssd1 vssd1 vccd1 vccd1 sky130_fd_sc_hd__fill_1
XFILLER_20_77 vssd1 vssd1 vccd1 vccd1 sky130_fd_sc_hd__fill_1
X_731_ net100 _179_ vssd1 vssd1 vccd1 vccd1 mux_top_ipin_0.mux_2level_tapbuf_basis_input3_mem3_2_out
+ sky130_fd_sc_hd__ebufn_2
X_662_ mux_bottom_ipin_1.INVTX1_3_.out _110_ vssd1 vssd1 vccd1 vccd1 mux_bottom_ipin_2.mux_2level_tapbuf_basis_input3_mem3_0_out
+ sky130_fd_sc_hd__ebufn_2
XFILLER_31_316 vssd1 vssd1 vccd1 vccd1 sky130_ef_sc_hd__decap_12
XTAP_349 vssd1 vccd1 sky130_fd_sc_hd__tapvpwrvgnd_1
XTAP_338 vssd1 vccd1 sky130_fd_sc_hd__tapvpwrvgnd_1
XTAP_327 vssd1 vccd1 sky130_fd_sc_hd__tapvpwrvgnd_1
XTAP_316 vssd1 vccd1 sky130_fd_sc_hd__tapvpwrvgnd_1
XTAP_305 vssd1 vccd1 sky130_fd_sc_hd__tapvpwrvgnd_1
XANTENNA__413__A net36 vssd1 vssd1 vccd1 vccd1 sky130_fd_sc_hd__diode_2
XFILLER_34_121 vssd1 vssd1 vccd1 vccd1 sky130_ef_sc_hd__decap_12
XFILLER_19_140 vssd1 vssd1 vccd1 vccd1 sky130_fd_sc_hd__decap_4
XFILLER_19_195 vssd1 vssd1 vccd1 vccd1 sky130_fd_sc_hd__fill_1
XFILLER_34_165 vssd1 vssd1 vccd1 vccd1 sky130_ef_sc_hd__decap_12
XFILLER_22_327 vssd1 vssd1 vccd1 vccd1 sky130_fd_sc_hd__decap_4
XFILLER_57_279 vssd1 vssd1 vccd1 vccd1 sky130_fd_sc_hd__fill_1
XFILLER_25_110 vssd1 vssd1 vccd1 vccd1 sky130_fd_sc_hd__fill_2
XFILLER_13_349 vssd1 vssd1 vccd1 vccd1 sky130_ef_sc_hd__decap_12
XFILLER_15_33 vssd1 vssd1 vccd1 vccd1 sky130_ef_sc_hd__decap_12
XFILLER_31_21 vssd1 vssd1 vccd1 vccd1 sky130_ef_sc_hd__decap_12
Xoutput54 net54 vssd1 vssd1 vccd1 vccd1 chanx_left_out[17] sky130_fd_sc_hd__buf_2
Xoutput87 net87 vssd1 vssd1 vccd1 vccd1 top_grid_bottom_width_0_height_0_subtile_3__pin_outpad_0_
+ sky130_fd_sc_hd__buf_2
Xoutput43 net43 vssd1 vssd1 vccd1 vccd1 bottom_grid_top_width_0_height_0_subtile_0__pin_I_8_
+ sky130_fd_sc_hd__buf_2
XFILLER_0_253 vssd1 vssd1 vccd1 vccd1 sky130_fd_sc_hd__fill_2
Xoutput76 net76 vssd1 vssd1 vccd1 vccd1 chanx_right_out[2] sky130_fd_sc_hd__buf_2
Xoutput65 net65 vssd1 vssd1 vccd1 vccd1 chanx_right_out[0] sky130_fd_sc_hd__buf_2
XFILLER_63_249 vssd1 vssd1 vccd1 vccd1 sky130_ef_sc_hd__decap_12
X_714_ mux_bottom_ipin_0.INVTX1_3_.out _162_ vssd1 vssd1 vccd1 vccd1 mux_bottom_ipin_6.mux_2level_tapbuf_basis_input3_mem3_1_out
+ sky130_fd_sc_hd__ebufn_1
X_645_ mux_bottom_ipin_1.INVTX1_7_.out _093_ vssd1 vssd1 vccd1 vccd1 mux_bottom_ipin_1.mux_2level_tapbuf_basis_input3_mem3_2_out
+ sky130_fd_sc_hd__ebufn_2
XFILLER_0_275 vssd1 vssd1 vccd1 vccd1 sky130_fd_sc_hd__decap_4
XANTENNA_input30_A chanx_right_in[18] vssd1 vssd1 vccd1 vccd1 sky130_fd_sc_hd__diode_2
XANTENNA__408__A mux_bottom_ipin_0.mux_2level_tapbuf_basis_input3_mem3_3_out vssd1
+ vssd1 vccd1 vccd1 sky130_fd_sc_hd__diode_2
XFILLER_31_113 vssd1 vssd1 vccd1 vccd1 sky130_ef_sc_hd__decap_12
X_576_ clknet_3_0__leaf_prog_clk mem_top_ipin_3.DFFR_4_.Q _066_ vssd1 vssd1 vccd1
+ vccd1 net45 sky130_fd_sc_hd__dfrtp_1
XFILLER_16_187 vssd1 vssd1 vccd1 vccd1 sky130_fd_sc_hd__decap_4
XTAP_168 vssd1 vccd1 sky130_fd_sc_hd__tapvpwrvgnd_1
XTAP_157 vssd1 vccd1 sky130_fd_sc_hd__tapvpwrvgnd_1
XTAP_135 vssd1 vccd1 sky130_fd_sc_hd__tapvpwrvgnd_1
XTAP_146 vssd1 vccd1 sky130_fd_sc_hd__tapvpwrvgnd_1
XTAP_179 vssd1 vccd1 sky130_fd_sc_hd__tapvpwrvgnd_1
XFILLER_39_279 vssd1 vssd1 vccd1 vccd1 sky130_fd_sc_hd__fill_1
XFILLER_45_249 vssd1 vssd1 vccd1 vccd1 sky130_ef_sc_hd__decap_12
XFILLER_45_205 vssd1 vssd1 vccd1 vccd1 sky130_ef_sc_hd__decap_12
XFILLER_53_293 vssd1 vssd1 vccd1 vccd1 sky130_ef_sc_hd__decap_12
XFILLER_42_53 vssd1 vssd1 vccd1 vccd1 sky130_ef_sc_hd__decap_12
XFILLER_26_65 vssd1 vssd1 vccd1 vccd1 sky130_ef_sc_hd__decap_12
X_292_ mem_top_ipin_1.DFFR_1_.Q vssd1 vssd1 vccd1 vccd1 _190_ sky130_fd_sc_hd__inv_2
XFILLER_9_117 vssd1 vssd1 vccd1 vccd1 sky130_fd_sc_hd__fill_1
XFILLER_13_113 vssd1 vssd1 vccd1 vccd1 sky130_fd_sc_hd__fill_2
XFILLER_13_124 vssd1 vssd1 vccd1 vccd1 sky130_fd_sc_hd__decap_6
X_430_ net39 vssd1 vssd1 vccd1 vccd1 mux_bottom_ipin_3.INVTX1_5_.out sky130_fd_sc_hd__inv_2
X_361_ mem_bottom_ipin_3.DFFR_5_.Q vssd1 vssd1 vccd1 vccd1 _117_ sky130_fd_sc_hd__inv_2
XFILLER_42_97 vssd1 vssd1 vccd1 vccd1 sky130_ef_sc_hd__decap_12
XFILLER_3_69 vssd1 vssd1 vccd1 vccd1 sky130_ef_sc_hd__decap_12
X_628_ net14 vssd1 vssd1 vccd1 vccd1 net77 sky130_fd_sc_hd__clkbuf_2
X_559_ clknet_3_6__leaf_prog_clk mem_top_ipin_0.DFFR_3_.Q _049_ vssd1 vssd1 vccd1
+ vccd1 mem_top_ipin_0.DFFR_4_.Q sky130_fd_sc_hd__dfrtp_1
XANTENNA__601__A net23 vssd1 vssd1 vccd1 vccd1 sky130_fd_sc_hd__diode_2
XFILLER_35_293 vssd1 vssd1 vccd1 vccd1 sky130_ef_sc_hd__decap_12
XFILLER_10_138 vssd1 vssd1 vccd1 vccd1 sky130_fd_sc_hd__fill_2
XFILLER_2_315 vssd1 vssd1 vccd1 vccd1 sky130_fd_sc_hd__decap_4
XFILLER_58_385 vssd1 vssd1 vccd1 vccd1 sky130_fd_sc_hd__fill_1
XFILLER_58_363 vssd1 vssd1 vccd1 vccd1 sky130_fd_sc_hd__fill_1
XFILLER_37_53 vssd1 vssd1 vccd1 vccd1 sky130_fd_sc_hd__decap_3
XFILLER_26_271 vssd1 vssd1 vccd1 vccd1 sky130_fd_sc_hd__decap_4
X_413_ net36 vssd1 vssd1 vccd1 vccd1 mux_bottom_ipin_0.INVTX1_3_.out sky130_fd_sc_hd__inv_2
XFILLER_18_227 vssd1 vssd1 vccd1 vccd1 sky130_fd_sc_hd__decap_4
X_344_ mem_bottom_ipin_5.DFFR_1_.Q vssd1 vssd1 vccd1 vccd1 _144_ sky130_fd_sc_hd__inv_2
X_275_ mem_top_ipin_2.DFFR_2_.Q vssd1 vssd1 vccd1 vccd1 _207_ sky130_fd_sc_hd__inv_2
XFILLER_5_186 vssd1 vssd1 vccd1 vccd1 sky130_fd_sc_hd__decap_8
XANTENNA_output61_A net61 vssd1 vssd1 vccd1 vccd1 sky130_fd_sc_hd__diode_2
XFILLER_17_271 vssd1 vssd1 vccd1 vccd1 sky130_fd_sc_hd__decap_4
XFILLER_17_293 vssd1 vssd1 vccd1 vccd1 sky130_fd_sc_hd__decap_4
XFILLER_59_149 vssd1 vssd1 vccd1 vccd1 sky130_ef_sc_hd__decap_12
XFILLER_59_105 vssd1 vssd1 vccd1 vccd1 sky130_fd_sc_hd__decap_6
XFILLER_23_285 vssd1 vssd1 vccd1 vccd1 sky130_fd_sc_hd__fill_1
XFILLER_23_55 vssd1 vssd1 vccd1 vccd1 sky130_fd_sc_hd__fill_1
XFILLER_3_3 vssd1 vssd1 vccd1 vccd1 sky130_ef_sc_hd__decap_12
XFILLER_48_85 vssd1 vssd1 vccd1 vccd1 sky130_ef_sc_hd__decap_12
XFILLER_48_41 vssd1 vssd1 vccd1 vccd1 sky130_ef_sc_hd__decap_12
XFILLER_2_189 vssd1 vssd1 vccd1 vccd1 sky130_fd_sc_hd__fill_1
XFILLER_0_26 vssd1 vssd1 vccd1 vccd1 sky130_fd_sc_hd__fill_2
XFILLER_46_377 vssd1 vssd1 vccd1 vccd1 sky130_fd_sc_hd__decap_8
XFILLER_0_48 vssd1 vssd1 vccd1 vccd1 sky130_fd_sc_hd__decap_8
XFILLER_14_241 vssd1 vssd1 vccd1 vccd1 sky130_fd_sc_hd__decap_4
X_327_ mem_bottom_ipin_6.DFFR_2_.Q vssd1 vssd1 vccd1 vccd1 _155_ sky130_fd_sc_hd__inv_2
XANTENNA__416__A net18 vssd1 vssd1 vccd1 vccd1 sky130_fd_sc_hd__diode_2
XFILLER_9_57 vssd1 vssd1 vccd1 vccd1 sky130_ef_sc_hd__decap_12
XFILLER_14_285 vssd1 vssd1 vccd1 vccd1 sky130_fd_sc_hd__decap_4
X_258_ _079_ vssd1 vssd1 vccd1 vccd1 _069_ sky130_fd_sc_hd__inv_2
XFILLER_36_3 vssd1 vssd1 vccd1 vccd1 sky130_ef_sc_hd__decap_12
XFILLER_64_141 vssd1 vssd1 vccd1 vccd1 sky130_fd_sc_hd__decap_8
XFILLER_49_193 vssd1 vssd1 vccd1 vccd1 sky130_ef_sc_hd__decap_12
XANTENNA__326__A mem_bottom_ipin_6.DFFR_0_.Q vssd1 vssd1 vccd1 vccd1 sky130_fd_sc_hd__diode_2
XFILLER_20_299 vssd1 vssd1 vccd1 vccd1 sky130_fd_sc_hd__decap_4
XFILLER_18_22 vssd1 vssd1 vccd1 vccd1 sky130_fd_sc_hd__decap_6
XFILLER_28_377 vssd1 vssd1 vccd1 vccd1 sky130_fd_sc_hd__decap_8
XFILLER_18_99 vssd1 vssd1 vccd1 vccd1 sky130_fd_sc_hd__decap_4
XFILLER_50_53 vssd1 vssd1 vccd1 vccd1 sky130_ef_sc_hd__decap_12
XFILLER_34_65 vssd1 vssd1 vccd1 vccd1 sky130_ef_sc_hd__decap_12
XFILLER_11_266 vssd1 vssd1 vccd1 vccd1 sky130_fd_sc_hd__decap_6
XFILLER_59_51 vssd1 vssd1 vccd1 vccd1 sky130_fd_sc_hd__decap_4
XTAP_509 vssd1 vccd1 sky130_fd_sc_hd__tapvpwrvgnd_1
XFILLER_50_97 vssd1 vssd1 vccd1 vccd1 sky130_ef_sc_hd__decap_12
XFILLER_46_141 vssd1 vssd1 vccd1 vccd1 sky130_ef_sc_hd__decap_12
XFILLER_19_377 vssd1 vssd1 vccd1 vccd1 sky130_fd_sc_hd__decap_8
XFILLER_19_300 vssd1 vssd1 vccd1 vccd1 sky130_fd_sc_hd__decap_4
XFILLER_61_111 vssd1 vssd1 vccd1 vccd1 sky130_fd_sc_hd__fill_1
XFILLER_6_281 vssd1 vssd1 vccd1 vccd1 sky130_fd_sc_hd__decap_4
XFILLER_52_177 vssd1 vssd1 vccd1 vccd1 sky130_ef_sc_hd__decap_12
XFILLER_52_133 vssd1 vssd1 vccd1 vccd1 sky130_fd_sc_hd__decap_6
XFILLER_25_325 vssd1 vssd1 vccd1 vccd1 sky130_fd_sc_hd__fill_1
XFILLER_28_141 vssd1 vssd1 vccd1 vccd1 sky130_fd_sc_hd__fill_2
X_730_ mux_bottom_ipin_2.INVTX1_7_.out _178_ vssd1 vssd1 vccd1 vccd1 mux_top_ipin_0.mux_2level_tapbuf_basis_input3_mem3_2_out
+ sky130_fd_sc_hd__ebufn_2
X_661_ mux_bottom_ipin_2.INVTX1_5_.out _109_ vssd1 vssd1 vccd1 vccd1 mux_bottom_ipin_2.mux_2level_tapbuf_basis_input3_mem3_1_out
+ sky130_fd_sc_hd__ebufn_2
XFILLER_16_314 vssd1 vssd1 vccd1 vccd1 sky130_fd_sc_hd__decap_4
XFILLER_43_111 vssd1 vssd1 vccd1 vccd1 sky130_fd_sc_hd__fill_1
XFILLER_31_328 vssd1 vssd1 vccd1 vccd1 sky130_fd_sc_hd__decap_8
XFILLER_28_185 vssd1 vssd1 vccd1 vccd1 sky130_fd_sc_hd__decap_6
XTAP_339 vssd1 vccd1 sky130_fd_sc_hd__tapvpwrvgnd_1
XTAP_328 vssd1 vccd1 sky130_fd_sc_hd__tapvpwrvgnd_1
XTAP_317 vssd1 vccd1 sky130_fd_sc_hd__tapvpwrvgnd_1
XTAP_306 vssd1 vccd1 sky130_fd_sc_hd__tapvpwrvgnd_1
XFILLER_34_133 vssd1 vssd1 vccd1 vccd1 sky130_fd_sc_hd__decap_6
XANTENNA__604__A net38 vssd1 vssd1 vccd1 vccd1 sky130_fd_sc_hd__diode_2
XFILLER_57_225 vssd1 vssd1 vccd1 vccd1 sky130_ef_sc_hd__decap_12
XFILLER_25_188 vssd1 vssd1 vccd1 vccd1 sky130_fd_sc_hd__fill_1
XFILLER_25_133 vssd1 vssd1 vccd1 vccd1 sky130_fd_sc_hd__decap_4
XFILLER_15_45 vssd1 vssd1 vccd1 vccd1 sky130_fd_sc_hd__decap_8
XFILLER_15_78 vssd1 vssd1 vccd1 vccd1 sky130_fd_sc_hd__decap_4
XFILLER_31_33 vssd1 vssd1 vccd1 vccd1 sky130_ef_sc_hd__decap_12
XFILLER_21_361 vssd1 vssd1 vccd1 vccd1 sky130_ef_sc_hd__decap_12
Xoutput77 net77 vssd1 vssd1 vccd1 vccd1 chanx_right_out[3] sky130_fd_sc_hd__buf_2
Xoutput55 net55 vssd1 vssd1 vccd1 vccd1 chanx_left_out[18] sky130_fd_sc_hd__buf_2
Xoutput88 net88 vssd1 vssd1 vccd1 vccd1 top_grid_bottom_width_0_height_0_subtile_4__pin_outpad_0_
+ sky130_fd_sc_hd__buf_2
Xoutput44 net44 vssd1 vssd1 vccd1 vccd1 bottom_grid_top_width_0_height_0_subtile_0__pin_clk_0_
+ sky130_fd_sc_hd__buf_2
Xoutput66 net66 vssd1 vssd1 vccd1 vccd1 chanx_right_out[10] sky130_fd_sc_hd__buf_2
XFILLER_56_85 vssd1 vssd1 vccd1 vccd1 sky130_ef_sc_hd__decap_12
XFILLER_56_41 vssd1 vssd1 vccd1 vccd1 sky130_ef_sc_hd__decap_12
XANTENNA_input23_A chanx_right_in[11] vssd1 vssd1 vccd1 vccd1 sky130_fd_sc_hd__diode_2