* NGSPICE file created from sb_0__4_.ext - technology: sky130A

* Black-box entry subcircuit for sky130_ef_sc_hd__decap_12 abstract view
.subckt sky130_ef_sc_hd__decap_12 VGND VNB VPB VPWR
.ends

* Black-box entry subcircuit for sky130_fd_sc_hd__fill_2 abstract view
.subckt sky130_fd_sc_hd__fill_2 VGND VNB VPB VPWR
.ends

* Black-box entry subcircuit for sky130_fd_sc_hd__tapvpwrvgnd_1 abstract view
.subckt sky130_fd_sc_hd__tapvpwrvgnd_1 VGND VPWR
.ends

* Black-box entry subcircuit for sky130_fd_sc_hd__conb_1 abstract view
.subckt sky130_fd_sc_hd__conb_1 VGND VNB VPB VPWR HI LO
.ends

* Black-box entry subcircuit for sky130_fd_sc_hd__decap_8 abstract view
.subckt sky130_fd_sc_hd__decap_8 VGND VNB VPB VPWR
.ends

* Black-box entry subcircuit for sky130_fd_sc_hd__decap_6 abstract view
.subckt sky130_fd_sc_hd__decap_6 VGND VNB VPB VPWR
.ends

* Black-box entry subcircuit for sky130_fd_sc_hd__fill_1 abstract view
.subckt sky130_fd_sc_hd__fill_1 VGND VNB VPB VPWR
.ends

* Black-box entry subcircuit for sky130_fd_sc_hd__clkbuf_1 abstract view
.subckt sky130_fd_sc_hd__clkbuf_1 A VGND VNB VPB VPWR X
.ends

* Black-box entry subcircuit for sky130_fd_sc_hd__decap_4 abstract view
.subckt sky130_fd_sc_hd__decap_4 VGND VNB VPB VPWR
.ends

* Black-box entry subcircuit for sky130_fd_sc_hd__decap_3 abstract view
.subckt sky130_fd_sc_hd__decap_3 VGND VNB VPB VPWR
.ends

* Black-box entry subcircuit for sky130_fd_sc_hd__inv_2 abstract view
.subckt sky130_fd_sc_hd__inv_2 A VGND VNB VPB VPWR Y
.ends

* Black-box entry subcircuit for sky130_fd_sc_hd__ebufn_2 abstract view
.subckt sky130_fd_sc_hd__ebufn_2 A TE_B VGND VNB VPB VPWR Z
.ends

* Black-box entry subcircuit for sky130_fd_sc_hd__dfrtp_2 abstract view
.subckt sky130_fd_sc_hd__dfrtp_2 CLK D RESET_B VGND VNB VPB VPWR Q
.ends

* Black-box entry subcircuit for sky130_fd_sc_hd__ebufn_1 abstract view
.subckt sky130_fd_sc_hd__ebufn_1 A TE_B VGND VNB VPB VPWR Z
.ends

* Black-box entry subcircuit for sky130_fd_sc_hd__diode_2 abstract view
.subckt sky130_fd_sc_hd__diode_2 DIODE VGND VNB VPB VPWR
.ends

* Black-box entry subcircuit for sky130_fd_sc_hd__clkinv_2 abstract view
.subckt sky130_fd_sc_hd__clkinv_2 A VGND VNB VPB VPWR Y
.ends

* Black-box entry subcircuit for sky130_fd_sc_hd__buf_2 abstract view
.subckt sky130_fd_sc_hd__buf_2 A VGND VNB VPB VPWR X
.ends

* Black-box entry subcircuit for sky130_fd_sc_hd__dfrtp_4 abstract view
.subckt sky130_fd_sc_hd__dfrtp_4 CLK D RESET_B VGND VNB VPB VPWR Q
.ends

* Black-box entry subcircuit for sky130_fd_sc_hd__dfrtp_1 abstract view
.subckt sky130_fd_sc_hd__dfrtp_1 CLK D RESET_B VGND VNB VPB VPWR Q
.ends

* Black-box entry subcircuit for sky130_fd_sc_hd__buf_4 abstract view
.subckt sky130_fd_sc_hd__buf_4 A VGND VNB VPB VPWR X
.ends

* Black-box entry subcircuit for sky130_fd_sc_hd__ebufn_4 abstract view
.subckt sky130_fd_sc_hd__ebufn_4 A TE_B VGND VNB VPB VPWR Z
.ends

* Black-box entry subcircuit for sky130_fd_sc_hd__clkbuf_2 abstract view
.subckt sky130_fd_sc_hd__clkbuf_2 A VGND VNB VPB VPWR X
.ends

* Black-box entry subcircuit for sky130_fd_sc_hd__dlymetal6s2s_1 abstract view
.subckt sky130_fd_sc_hd__dlymetal6s2s_1 A VGND VNB VPB VPWR X
.ends

* Black-box entry subcircuit for sky130_fd_sc_hd__clkbuf_8 abstract view
.subckt sky130_fd_sc_hd__clkbuf_8 A VGND VNB VPB VPWR X
.ends

.subckt sb_0__4_ bottom_left_grid_right_width_0_height_0_subtile_0__pin_inpad_0_ bottom_left_grid_right_width_0_height_0_subtile_1__pin_inpad_0_
+ bottom_left_grid_right_width_0_height_0_subtile_2__pin_inpad_0_ bottom_left_grid_right_width_0_height_0_subtile_3__pin_inpad_0_
+ bottom_left_grid_right_width_0_height_0_subtile_4__pin_inpad_0_ bottom_left_grid_right_width_0_height_0_subtile_5__pin_inpad_0_
+ bottom_left_grid_right_width_0_height_0_subtile_6__pin_inpad_0_ bottom_left_grid_right_width_0_height_0_subtile_7__pin_inpad_0_
+ bottom_right_grid_left_width_0_height_0_subtile_0__pin_O_3_ bottom_right_grid_left_width_0_height_0_subtile_0__pin_O_7_
+ ccff_head ccff_tail chanx_right_in[0] chanx_right_in[10] chanx_right_in[11] chanx_right_in[12]
+ chanx_right_in[13] chanx_right_in[14] chanx_right_in[15] chanx_right_in[16] chanx_right_in[17]
+ chanx_right_in[18] chanx_right_in[1] chanx_right_in[2] chanx_right_in[3] chanx_right_in[4]
+ chanx_right_in[5] chanx_right_in[6] chanx_right_in[7] chanx_right_in[8] chanx_right_in[9]
+ chanx_right_out[0] chanx_right_out[10] chanx_right_out[11] chanx_right_out[12] chanx_right_out[13]
+ chanx_right_out[14] chanx_right_out[15] chanx_right_out[16] chanx_right_out[17]
+ chanx_right_out[18] chanx_right_out[1] chanx_right_out[2] chanx_right_out[3] chanx_right_out[4]
+ chanx_right_out[5] chanx_right_out[6] chanx_right_out[7] chanx_right_out[8] chanx_right_out[9]
+ chany_bottom_in[0] chany_bottom_in[10] chany_bottom_in[11] chany_bottom_in[12] chany_bottom_in[13]
+ chany_bottom_in[14] chany_bottom_in[15] chany_bottom_in[16] chany_bottom_in[17]
+ chany_bottom_in[18] chany_bottom_in[1] chany_bottom_in[2] chany_bottom_in[3] chany_bottom_in[4]
+ chany_bottom_in[5] chany_bottom_in[6] chany_bottom_in[7] chany_bottom_in[8] chany_bottom_in[9]
+ chany_bottom_out[0] chany_bottom_out[10] chany_bottom_out[11] chany_bottom_out[12]
+ chany_bottom_out[13] chany_bottom_out[14] chany_bottom_out[15] chany_bottom_out[16]
+ chany_bottom_out[17] chany_bottom_out[18] chany_bottom_out[1] chany_bottom_out[2]
+ chany_bottom_out[3] chany_bottom_out[4] chany_bottom_out[5] chany_bottom_out[6]
+ chany_bottom_out[7] chany_bottom_out[8] chany_bottom_out[9] pReset prog_clk right_bottom_grid_top_width_0_height_0_subtile_0__pin_O_0_
+ right_bottom_grid_top_width_0_height_0_subtile_0__pin_O_4_ right_top_grid_bottom_width_0_height_0_subtile_0__pin_inpad_0_
+ right_top_grid_bottom_width_0_height_0_subtile_1__pin_inpad_0_ right_top_grid_bottom_width_0_height_0_subtile_2__pin_inpad_0_
+ right_top_grid_bottom_width_0_height_0_subtile_3__pin_inpad_0_ right_top_grid_bottom_width_0_height_0_subtile_4__pin_inpad_0_
+ right_top_grid_bottom_width_0_height_0_subtile_5__pin_inpad_0_ right_top_grid_bottom_width_0_height_0_subtile_6__pin_inpad_0_
+ right_top_grid_bottom_width_0_height_0_subtile_7__pin_inpad_0_ vccd1 vssd1
XFILLER_39_299 vssd1 vssd1 vccd1 vccd1 sky130_ef_sc_hd__decap_12
XFILLER_39_244 vssd1 vssd1 vccd1 vccd1 sky130_ef_sc_hd__decap_12
XFILLER_39_211 vssd1 vssd1 vccd1 vccd1 sky130_fd_sc_hd__fill_2
XTAP_177 vssd1 vccd1 sky130_fd_sc_hd__tapvpwrvgnd_1
XTAP_188 vssd1 vccd1 sky130_fd_sc_hd__tapvpwrvgnd_1
XTAP_199 vssd1 vccd1 sky130_fd_sc_hd__tapvpwrvgnd_1
X_1135__120 vssd1 vssd1 vccd1 vccd1 net120 _1135__120/LO sky130_fd_sc_hd__conb_1
XFILLER_52_29 vssd1 vssd1 vccd1 vccd1 sky130_fd_sc_hd__fill_2
XFILLER_45_225 vssd1 vssd1 vccd1 vccd1 sky130_ef_sc_hd__decap_12
XFILLER_26_85 vssd1 vssd1 vccd1 vccd1 sky130_ef_sc_hd__decap_12
XFILLER_26_41 vssd1 vssd1 vccd1 vccd1 sky130_fd_sc_hd__decap_8
XFILLER_42_40 vssd1 vssd1 vccd1 vccd1 sky130_ef_sc_hd__decap_12
XFILLER_9_148 vssd1 vssd1 vccd1 vccd1 sky130_fd_sc_hd__decap_6
XFILLER_54_9 vssd1 vssd1 vccd1 vccd1 sky130_fd_sc_hd__fill_1
XFILLER_5_354 vssd1 vssd1 vccd1 vccd1 sky130_ef_sc_hd__decap_12
XFILLER_36_258 vssd1 vssd1 vccd1 vccd1 sky130_ef_sc_hd__decap_12
X_0985_ mux_right_track_18.out vssd1 vssd1 vccd1 vccd1 net80 sky130_fd_sc_hd__clkbuf_1
XFILLER_59_317 vssd1 vssd1 vccd1 vccd1 sky130_ef_sc_hd__decap_12
X_0419_ _0078_ vssd1 vssd1 vccd1 vccd1 _0356_ sky130_fd_sc_hd__clkbuf_1
XFILLER_47_29 vssd1 vssd1 vccd1 vccd1 sky130_fd_sc_hd__decap_4
XFILLER_42_228 vssd1 vssd1 vccd1 vccd1 sky130_fd_sc_hd__decap_3
XFILLER_27_225 vssd1 vssd1 vccd1 vccd1 sky130_fd_sc_hd__decap_8
XFILLER_10_125 vssd1 vssd1 vccd1 vccd1 sky130_fd_sc_hd__decap_4
XFILLER_2_357 vssd1 vssd1 vccd1 vccd1 sky130_fd_sc_hd__decap_6
XFILLER_58_394 vssd1 vssd1 vccd1 vccd1 sky130_ef_sc_hd__decap_12
XFILLER_37_73 vssd1 vssd1 vccd1 vccd1 sky130_fd_sc_hd__decap_4
X_0770_ net26 vssd1 vssd1 vccd1 vccd1 mux_bottom_track_25.INVTX1_0_.out sky130_fd_sc_hd__inv_2
XFILLER_56_309 vssd1 vssd1 vccd1 vccd1 sky130_ef_sc_hd__decap_12
XFILLER_1_390 vssd1 vssd1 vccd1 vccd1 sky130_fd_sc_hd__fill_2
XFILLER_64_342 vssd1 vssd1 vccd1 vccd1 sky130_fd_sc_hd__decap_8
XFILLER_49_361 vssd1 vssd1 vccd1 vccd1 sky130_ef_sc_hd__decap_12
XFILLER_17_291 vssd1 vssd1 vccd1 vccd1 sky130_ef_sc_hd__decap_12
X_1184_ net132 _0347_ vssd1 vssd1 vccd1 vccd1 mux_bottom_track_27.mux_2level_tapbuf_basis_input2_mem1_1_out
+ sky130_fd_sc_hd__ebufn_2
XFILLER_20_401 vssd1 vssd1 vccd1 vccd1 sky130_fd_sc_hd__decap_6
X_0899_ prog_clk mem_bottom_track_15.DFFR_0_.Q _0002_ vssd1 vssd1 vccd1 vccd1 mem_bottom_track_15.DFFR_1_.Q
+ sky130_fd_sc_hd__dfrtp_2
XFILLER_59_169 vssd1 vssd1 vccd1 vccd1 sky130_ef_sc_hd__decap_12
XFILLER_59_125 vssd1 vssd1 vccd1 vccd1 sky130_ef_sc_hd__decap_12
XFILLER_23_272 vssd1 vssd1 vccd1 vccd1 sky130_fd_sc_hd__decap_8
XFILLER_15_217 vssd1 vssd1 vccd1 vccd1 sky130_fd_sc_hd__decap_6
XFILLER_23_294 vssd1 vssd1 vccd1 vccd1 sky130_fd_sc_hd__fill_2
XFILLER_23_53 vssd1 vssd1 vccd1 vccd1 sky130_fd_sc_hd__decap_3
XFILLER_23_31 vssd1 vssd1 vccd1 vccd1 sky130_fd_sc_hd__decap_4
XFILLER_7_405 vssd1 vssd1 vccd1 vccd1 sky130_fd_sc_hd__fill_2
XFILLER_48_61 vssd1 vssd1 vccd1 vccd1 sky130_ef_sc_hd__decap_12
XFILLER_38_309 vssd1 vssd1 vccd1 vccd1 sky130_ef_sc_hd__decap_12
XFILLER_2_165 vssd1 vssd1 vccd1 vccd1 sky130_ef_sc_hd__decap_12
XFILLER_0_57 vssd1 vssd1 vccd1 vccd1 sky130_fd_sc_hd__fill_2
XFILLER_61_389 vssd1 vssd1 vccd1 vccd1 sky130_fd_sc_hd__decap_3
X_0822_ _0173_ vssd1 vssd1 vccd1 vccd1 _0002_ sky130_fd_sc_hd__inv_2
XFILLER_14_250 vssd1 vssd1 vccd1 vccd1 sky130_fd_sc_hd__fill_2
XFILLER_50_3 vssd1 vssd1 vccd1 vccd1 sky130_fd_sc_hd__decap_4
X_0684_ mem_right_track_0.DFFR_0_.Q vssd1 vssd1 vccd1 vccd1 _0181_ sky130_fd_sc_hd__inv_2
X_0753_ net57 vssd1 vssd1 vccd1 vccd1 mux_right_track_26.INVTX1_0_.out sky130_fd_sc_hd__inv_2
XFILLER_29_309 vssd1 vssd1 vccd1 vccd1 sky130_fd_sc_hd__fill_1
XFILLER_52_389 vssd1 vssd1 vccd1 vccd1 sky130_ef_sc_hd__decap_12
XFILLER_52_345 vssd1 vssd1 vccd1 vccd1 sky130_ef_sc_hd__decap_12
X_1098_ mux_bottom_track_9.mux_2level_tapbuf_basis_input2_mem1_1_out _0261_ vssd1
+ vssd1 vccd1 vccd1 mux_bottom_track_9.mux_2level_tapbuf_basis_input2_mem1_2_out sky130_fd_sc_hd__ebufn_2
X_1167_ mux_right_track_12.INVTX1_1_.out _0330_ vssd1 vssd1 vccd1 vccd1 mux_right_track_32.mux_2level_tapbuf_basis_input2_mem1_0_out
+ sky130_fd_sc_hd__ebufn_1
XFILLER_12_209 vssd1 vssd1 vccd1 vccd1 sky130_fd_sc_hd__decap_4
XFILLER_60_29 vssd1 vssd1 vccd1 vccd1 sky130_ef_sc_hd__decap_12
XFILLER_20_253 vssd1 vssd1 vccd1 vccd1 sky130_fd_sc_hd__decap_4
XFILLER_20_286 vssd1 vssd1 vccd1 vccd1 sky130_fd_sc_hd__decap_8
XFILLER_20_297 vssd1 vssd1 vccd1 vccd1 sky130_fd_sc_hd__decap_4
XFILLER_62_109 vssd1 vssd1 vccd1 vccd1 sky130_ef_sc_hd__decap_12
XFILLER_43_323 vssd1 vssd1 vccd1 vccd1 sky130_ef_sc_hd__decap_12
XFILLER_18_53 vssd1 vssd1 vccd1 vccd1 sky130_fd_sc_hd__fill_1
XFILLER_18_75 vssd1 vssd1 vccd1 vccd1 sky130_fd_sc_hd__decap_8
XFILLER_18_97 vssd1 vssd1 vccd1 vccd1 sky130_ef_sc_hd__decap_12
XFILLER_34_85 vssd1 vssd1 vccd1 vccd1 sky130_ef_sc_hd__decap_12
XFILLER_34_63 vssd1 vssd1 vccd1 vccd1 sky130_ef_sc_hd__decap_12
XTAP_507 vssd1 vccd1 sky130_fd_sc_hd__tapvpwrvgnd_1
XFILLER_50_95 vssd1 vssd1 vccd1 vccd1 sky130_ef_sc_hd__decap_12
XFILLER_7_257 vssd1 vssd1 vccd1 vccd1 sky130_fd_sc_hd__decap_8
XFILLER_59_93 vssd1 vssd1 vccd1 vccd1 sky130_ef_sc_hd__decap_12
XTAP_529 vssd1 vccd1 sky130_fd_sc_hd__tapvpwrvgnd_1
XTAP_518 vssd1 vccd1 sky130_fd_sc_hd__tapvpwrvgnd_1
X_1021_ net101 _0184_ vssd1 vssd1 vccd1 vccd1 mux_right_track_2.mux_2level_tapbuf_basis_input2_mem1_1_out
+ sky130_fd_sc_hd__ebufn_2
XFILLER_46_161 vssd1 vssd1 vccd1 vccd1 sky130_fd_sc_hd__decap_3
XFILLER_34_389 vssd1 vssd1 vccd1 vccd1 sky130_ef_sc_hd__decap_12
X_0805_ _0171_ vssd1 vssd1 vccd1 vccd1 _0061_ sky130_fd_sc_hd__inv_2
X_0667_ _0161_ vssd1 vssd1 vccd1 vccd1 _0191_ sky130_fd_sc_hd__clkbuf_1
X_0736_ net13 vssd1 vssd1 vccd1 vccd1 mux_bottom_track_15.INVTX1_0_.out sky130_fd_sc_hd__inv_2
X_0598_ mem_right_track_36.DFFR_0_.Q vssd1 vssd1 vccd1 vccd1 _0241_ sky130_fd_sc_hd__inv_2
XFILLER_52_197 vssd1 vssd1 vccd1 vccd1 sky130_fd_sc_hd__decap_3
XFILLER_52_175 vssd1 vssd1 vccd1 vccd1 sky130_ef_sc_hd__decap_12
XFILLER_52_153 vssd1 vssd1 vccd1 vccd1 sky130_fd_sc_hd__decap_4
XFILLER_52_131 vssd1 vssd1 vccd1 vccd1 sky130_fd_sc_hd__fill_2
XFILLER_20_21 vssd1 vssd1 vccd1 vccd1 sky130_fd_sc_hd__decap_6
XFILLER_20_65 vssd1 vssd1 vccd1 vccd1 sky130_ef_sc_hd__decap_12
XFILLER_43_175 vssd1 vssd1 vccd1 vccd1 sky130_fd_sc_hd__decap_4
XFILLER_31_304 vssd1 vssd1 vccd1 vccd1 sky130_ef_sc_hd__decap_12
XFILLER_28_194 vssd1 vssd1 vccd1 vccd1 sky130_fd_sc_hd__fill_2
XFILLER_16_389 vssd1 vssd1 vccd1 vccd1 sky130_ef_sc_hd__decap_12
XFILLER_31_337 vssd1 vssd1 vccd1 vccd1 sky130_ef_sc_hd__decap_12
X_0452_ mem_right_track_0.DFFR_1_.Q vssd1 vssd1 vccd1 vccd1 _0090_ sky130_fd_sc_hd__clkbuf_1
XANTENNA_5 mux_right_track_20.INVTX1_1_.out vssd1 vssd1 vccd1 vccd1 sky130_fd_sc_hd__diode_2
X_0521_ mem_bottom_track_17.DFFR_0_.Q vssd1 vssd1 vccd1 vccd1 _0290_ sky130_fd_sc_hd__inv_2
XTAP_348 vssd1 vccd1 sky130_fd_sc_hd__tapvpwrvgnd_1
XTAP_337 vssd1 vccd1 sky130_fd_sc_hd__tapvpwrvgnd_1
XTAP_326 vssd1 vccd1 sky130_fd_sc_hd__tapvpwrvgnd_1
XTAP_315 vssd1 vccd1 sky130_fd_sc_hd__tapvpwrvgnd_1
XTAP_304 vssd1 vccd1 sky130_fd_sc_hd__tapvpwrvgnd_1
XFILLER_3_293 vssd1 vssd1 vccd1 vccd1 sky130_ef_sc_hd__decap_12
XTAP_359 vssd1 vccd1 sky130_fd_sc_hd__tapvpwrvgnd_1
XFILLER_13_3 vssd1 vssd1 vccd1 vccd1 sky130_fd_sc_hd__fill_2
XFILLER_34_197 vssd1 vssd1 vccd1 vccd1 sky130_fd_sc_hd__decap_4
XFILLER_34_120 vssd1 vssd1 vccd1 vccd1 sky130_ef_sc_hd__decap_12
X_1004_ mux_bottom_track_19.out vssd1 vssd1 vccd1 vccd1 net99 sky130_fd_sc_hd__clkbuf_1
XFILLER_19_194 vssd1 vssd1 vccd1 vccd1 sky130_ef_sc_hd__decap_12
X_0719_ mux_bottom_track_3.mux_2level_tapbuf_basis_input2_mem1_2_out vssd1 vssd1 vccd1
+ vccd1 mux_bottom_track_3.out sky130_fd_sc_hd__clkinv_2
XFILLER_57_256 vssd1 vssd1 vccd1 vccd1 sky130_ef_sc_hd__decap_12
XFILLER_25_175 vssd1 vssd1 vccd1 vccd1 sky130_fd_sc_hd__fill_1
XFILLER_15_21 vssd1 vssd1 vccd1 vccd1 sky130_ef_sc_hd__decap_12
XFILLER_40_145 vssd1 vssd1 vccd1 vccd1 sky130_fd_sc_hd__fill_1
XFILLER_31_53 vssd1 vssd1 vccd1 vccd1 sky130_fd_sc_hd__decap_3
XFILLER_13_337 vssd1 vssd1 vccd1 vccd1 sky130_ef_sc_hd__decap_12
Xoutput64 net64 vssd1 vssd1 vccd1 vccd1 chanx_right_out[11] sky130_fd_sc_hd__buf_2
Xoutput75 net75 vssd1 vssd1 vccd1 vccd1 chanx_right_out[4] sky130_fd_sc_hd__buf_2
XFILLER_0_230 vssd1 vssd1 vccd1 vccd1 sky130_fd_sc_hd__decap_8
XFILLER_63_237 vssd1 vssd1 vccd1 vccd1 sky130_ef_sc_hd__decap_12
Xoutput86 net86 vssd1 vssd1 vccd1 vccd1 chany_bottom_out[14] sky130_fd_sc_hd__buf_2
Xoutput97 net97 vssd1 vssd1 vccd1 vccd1 chany_bottom_out[7] sky130_fd_sc_hd__buf_2
XFILLER_16_131 vssd1 vssd1 vccd1 vccd1 sky130_fd_sc_hd__decap_8
XFILLER_16_186 vssd1 vssd1 vccd1 vccd1 sky130_fd_sc_hd__decap_4
XFILLER_16_197 vssd1 vssd1 vccd1 vccd1 sky130_fd_sc_hd__fill_2
XFILLER_8_363 vssd1 vssd1 vccd1 vccd1 sky130_fd_sc_hd__fill_1
X_0435_ mem_bottom_track_25.DFFR_0_.Q vssd1 vssd1 vccd1 vccd1 _0346_ sky130_fd_sc_hd__inv_2
XTAP_167 vssd1 vccd1 sky130_fd_sc_hd__tapvpwrvgnd_1
XTAP_156 vssd1 vccd1 sky130_fd_sc_hd__tapvpwrvgnd_1
XTAP_145 vssd1 vccd1 sky130_fd_sc_hd__tapvpwrvgnd_1
XTAP_134 vssd1 vccd1 sky130_fd_sc_hd__tapvpwrvgnd_1
XTAP_178 vssd1 vccd1 sky130_fd_sc_hd__tapvpwrvgnd_1
XTAP_189 vssd1 vccd1 sky130_fd_sc_hd__tapvpwrvgnd_1
X_0504_ mem_bottom_track_37.DFFR_0_.Q vssd1 vssd1 vccd1 vccd1 _0107_ sky130_fd_sc_hd__clkbuf_1
XFILLER_39_256 vssd1 vssd1 vccd1 vccd1 sky130_fd_sc_hd__decap_3
XFILLER_52_19 vssd1 vssd1 vccd1 vccd1 sky130_fd_sc_hd__decap_4
XFILLER_22_178 vssd1 vssd1 vccd1 vccd1 sky130_fd_sc_hd__decap_6
XFILLER_10_307 vssd1 vssd1 vccd1 vccd1 sky130_fd_sc_hd__fill_1
XFILLER_45_215 vssd1 vssd1 vccd1 vccd1 sky130_fd_sc_hd__fill_1
XFILLER_53_281 vssd1 vssd1 vccd1 vccd1 sky130_ef_sc_hd__decap_12
XFILLER_45_237 vssd1 vssd1 vccd1 vccd1 sky130_ef_sc_hd__decap_12
XFILLER_26_97 vssd1 vssd1 vccd1 vccd1 sky130_fd_sc_hd__decap_3
XFILLER_26_20 vssd1 vssd1 vccd1 vccd1 sky130_fd_sc_hd__decap_8
XFILLER_42_85 vssd1 vssd1 vccd1 vccd1 sky130_fd_sc_hd__fill_2
XFILLER_42_52 vssd1 vssd1 vccd1 vccd1 sky130_ef_sc_hd__decap_12
XFILLER_5_333 vssd1 vssd1 vccd1 vccd1 sky130_fd_sc_hd__decap_3
XFILLER_3_57 vssd1 vssd1 vccd1 vccd1 sky130_ef_sc_hd__decap_12
XFILLER_5_366 vssd1 vssd1 vccd1 vccd1 sky130_ef_sc_hd__decap_12
XFILLER_44_270 vssd1 vssd1 vccd1 vccd1 sky130_fd_sc_hd__decap_3
X_0984_ mux_right_track_20.out vssd1 vssd1 vccd1 vccd1 net63 sky130_fd_sc_hd__clkbuf_1
XFILLER_59_329 vssd1 vssd1 vccd1 vccd1 sky130_fd_sc_hd__decap_6
X_0418_ mem_bottom_track_31.DFFR_0_.Q vssd1 vssd1 vccd1 vccd1 _0078_ sky130_fd_sc_hd__clkbuf_1
XFILLER_47_19 vssd1 vssd1 vccd1 vccd1 sky130_fd_sc_hd__fill_1
X_1172__129 vssd1 vssd1 vccd1 vccd1 net129 _1172__129/LO sky130_fd_sc_hd__conb_1
XFILLER_35_281 vssd1 vssd1 vccd1 vccd1 sky130_ef_sc_hd__decap_12
XFILLER_37_41 vssd1 vssd1 vccd1 vccd1 sky130_ef_sc_hd__decap_12
XFILLER_18_215 vssd1 vssd1 vccd1 vccd1 sky130_fd_sc_hd__decap_4
XFILLER_18_237 vssd1 vssd1 vccd1 vccd1 sky130_fd_sc_hd__decap_4
XFILLER_53_84 vssd1 vssd1 vccd1 vccd1 sky130_fd_sc_hd__decap_4
XFILLER_53_62 vssd1 vssd1 vccd1 vccd1 sky130_fd_sc_hd__decap_6
XFILLER_5_141 vssd1 vssd1 vccd1 vccd1 sky130_ef_sc_hd__decap_12
XFILLER_5_130 vssd1 vssd1 vccd1 vccd1 sky130_fd_sc_hd__decap_8
XFILLER_49_373 vssd1 vssd1 vccd1 vccd1 sky130_ef_sc_hd__decap_12
XFILLER_64_365 vssd1 vssd1 vccd1 vccd1 sky130_fd_sc_hd__fill_2
XFILLER_64_321 vssd1 vssd1 vccd1 vccd1 sky130_ef_sc_hd__decap_12
X_1183_ mux_bottom_track_25.INVTX1_0_.out _0346_ vssd1 vssd1 vccd1 vccd1 mux_bottom_track_25.mux_2level_tapbuf_basis_input2_mem1_0_out
+ sky130_fd_sc_hd__ebufn_2
XFILLER_17_281 vssd1 vssd1 vccd1 vccd1 sky130_fd_sc_hd__fill_2
XFILLER_32_251 vssd1 vssd1 vccd1 vccd1 sky130_fd_sc_hd__fill_1
XFILLER_59_137 vssd1 vssd1 vccd1 vccd1 sky130_ef_sc_hd__decap_12
XFILLER_58_29 vssd1 vssd1 vccd1 vccd1 sky130_ef_sc_hd__decap_12
X_0898_ prog_clk mem_bottom_track_11.DFFR_1_.Q _0001_ vssd1 vssd1 vccd1 vccd1 mem_bottom_track_13.DFFR_0_.Q
+ sky130_fd_sc_hd__dfrtp_4
XFILLER_48_73 vssd1 vssd1 vccd1 vccd1 sky130_fd_sc_hd__decap_8
XFILLER_2_177 vssd1 vssd1 vccd1 vccd1 sky130_fd_sc_hd__decap_8
XFILLER_61_335 vssd1 vssd1 vccd1 vccd1 sky130_fd_sc_hd__fill_1
XFILLER_58_170 vssd1 vssd1 vccd1 vccd1 sky130_ef_sc_hd__decap_12
XFILLER_46_365 vssd1 vssd1 vccd1 vccd1 sky130_ef_sc_hd__decap_12
XFILLER_46_321 vssd1 vssd1 vccd1 vccd1 sky130_ef_sc_hd__decap_12
X_0821_ _0173_ vssd1 vssd1 vccd1 vccd1 _0001_ sky130_fd_sc_hd__inv_2
X_0752_ mux_right_track_26.mux_2level_tapbuf_basis_input2_mem1_1_out vssd1 vssd1 vccd1
+ vccd1 mux_right_track_26.out sky130_fd_sc_hd__clkinv_2
XFILLER_43_3 vssd1 vssd1 vccd1 vccd1 sky130_fd_sc_hd__decap_4
X_0683_ mem_right_track_0.DFFR_1_.Q vssd1 vssd1 vccd1 vccd1 _0180_ sky130_fd_sc_hd__inv_2
XFILLER_49_181 vssd1 vssd1 vccd1 vccd1 sky130_fd_sc_hd__decap_8
X_1166_ mux_right_track_32.mux_2level_tapbuf_basis_input2_mem1_0_out _0329_ vssd1
+ vssd1 vccd1 vccd1 mux_right_track_32.mux_2level_tapbuf_basis_input2_mem1_1_out sky130_fd_sc_hd__ebufn_2
XFILLER_64_195 vssd1 vssd1 vccd1 vccd1 sky130_fd_sc_hd__fill_1
XFILLER_52_357 vssd1 vssd1 vccd1 vccd1 sky130_fd_sc_hd__decap_6
X_1097_ mux_bottom_track_7.INVTX1_0_.out _0260_ vssd1 vssd1 vccd1 vccd1 mux_bottom_track_7.mux_2level_tapbuf_basis_input2_mem1_0_out
+ sky130_fd_sc_hd__ebufn_1
XFILLER_55_151 vssd1 vssd1 vccd1 vccd1 sky130_fd_sc_hd__decap_6
XFILLER_43_335 vssd1 vssd1 vccd1 vccd1 sky130_fd_sc_hd__fill_1
XFILLER_28_365 vssd1 vssd1 vccd1 vccd1 sky130_ef_sc_hd__decap_12
XFILLER_18_21 vssd1 vssd1 vccd1 vccd1 sky130_fd_sc_hd__fill_1
XFILLER_34_97 vssd1 vssd1 vccd1 vccd1 sky130_fd_sc_hd__decap_3
XFILLER_34_75 vssd1 vssd1 vccd1 vccd1 sky130_fd_sc_hd__decap_8
XFILLER_7_225 vssd1 vssd1 vccd1 vccd1 sky130_ef_sc_hd__decap_12
XFILLER_11_243 vssd1 vssd1 vccd1 vccd1 sky130_fd_sc_hd__fill_1
XFILLER_11_276 vssd1 vssd1 vccd1 vccd1 sky130_fd_sc_hd__decap_4
XTAP_519 vssd1 vccd1 sky130_fd_sc_hd__tapvpwrvgnd_1
XTAP_508 vssd1 vccd1 sky130_fd_sc_hd__tapvpwrvgnd_1
XFILLER_50_85 vssd1 vssd1 vccd1 vccd1 sky130_fd_sc_hd__fill_2
X_1020_ mux_right_track_2.INVTX1_1_.out _0183_ vssd1 vssd1 vccd1 vccd1 mux_right_track_2.mux_2level_tapbuf_basis_input2_mem1_0_out
+ sky130_fd_sc_hd__ebufn_1
XFILLER_46_195 vssd1 vssd1 vccd1 vccd1 sky130_fd_sc_hd__fill_1
X_0735_ mux_bottom_track_15.mux_2level_tapbuf_basis_input2_mem1_2_out vssd1 vssd1
+ vccd1 vccd1 mux_bottom_track_15.out sky130_fd_sc_hd__inv_2
X_0804_ _0171_ vssd1 vssd1 vccd1 vccd1 _0060_ sky130_fd_sc_hd__inv_2
XFILLER_57_405 vssd1 vssd1 vccd1 vccd1 sky130_fd_sc_hd__fill_2
X_0666_ mem_right_track_4.DFFR_0_.Q vssd1 vssd1 vccd1 vccd1 _0161_ sky130_fd_sc_hd__clkbuf_1
X_0597_ _0138_ vssd1 vssd1 vccd1 vccd1 _0237_ sky130_fd_sc_hd__clkbuf_1
X_1149_ mux_right_track_24.INVTX1_1_.out _0312_ vssd1 vssd1 vccd1 vccd1 mux_right_track_24.mux_2level_tapbuf_basis_input2_mem1_0_out
+ sky130_fd_sc_hd__ebufn_1
XFILLER_37_162 vssd1 vssd1 vccd1 vccd1 sky130_fd_sc_hd__fill_1
XFILLER_25_335 vssd1 vssd1 vccd1 vccd1 sky130_fd_sc_hd__fill_1
XFILLER_1_90 vssd1 vssd1 vccd1 vccd1 sky130_fd_sc_hd__fill_1
XFILLER_52_187 vssd1 vssd1 vccd1 vccd1 sky130_fd_sc_hd__decap_8
XFILLER_52_165 vssd1 vssd1 vccd1 vccd1 sky130_fd_sc_hd__decap_6
XFILLER_40_305 vssd1 vssd1 vccd1 vccd1 sky130_fd_sc_hd__decap_3
XFILLER_20_77 vssd1 vssd1 vccd1 vccd1 sky130_fd_sc_hd__decap_6
XFILLER_31_349 vssd1 vssd1 vccd1 vccd1 sky130_ef_sc_hd__decap_12
XFILLER_31_316 vssd1 vssd1 vccd1 vccd1 sky130_ef_sc_hd__decap_12
XFILLER_28_162 vssd1 vssd1 vccd1 vccd1 sky130_fd_sc_hd__decap_4
XFILLER_61_51 vssd1 vssd1 vccd1 vccd1 sky130_fd_sc_hd__decap_4
XANTENNA_6 net11 vssd1 vssd1 vccd1 vccd1 sky130_fd_sc_hd__diode_2
XFILLER_39_405 vssd1 vssd1 vccd1 vccd1 sky130_fd_sc_hd__fill_2
XTAP_349 vssd1 vccd1 sky130_fd_sc_hd__tapvpwrvgnd_1
XTAP_338 vssd1 vccd1 sky130_fd_sc_hd__tapvpwrvgnd_1
X_0520_ mem_bottom_track_17.DFFR_1_.Q vssd1 vssd1 vccd1 vccd1 _0288_ sky130_fd_sc_hd__inv_2
XTAP_327 vssd1 vccd1 sky130_fd_sc_hd__tapvpwrvgnd_1
XTAP_316 vssd1 vccd1 sky130_fd_sc_hd__tapvpwrvgnd_1
XTAP_305 vssd1 vccd1 sky130_fd_sc_hd__tapvpwrvgnd_1
XFILLER_3_261 vssd1 vssd1 vccd1 vccd1 sky130_ef_sc_hd__decap_12
XFILLER_6_68 vssd1 vssd1 vccd1 vccd1 sky130_fd_sc_hd__decap_4
X_0451_ _0089_ vssd1 vssd1 vccd1 vccd1 _0335_ sky130_fd_sc_hd__clkbuf_1
X_1003_ net28 vssd1 vssd1 vccd1 vccd1 net82 sky130_fd_sc_hd__clkbuf_1
XFILLER_34_132 vssd1 vssd1 vccd1 vccd1 sky130_fd_sc_hd__decap_8
XFILLER_19_184 vssd1 vssd1 vccd1 vccd1 sky130_fd_sc_hd__decap_6
X_0718_ net40 vssd1 vssd1 vccd1 vccd1 mux_right_track_36.INVTX1_2_.out sky130_fd_sc_hd__clkinv_2
XFILLER_57_268 vssd1 vssd1 vccd1 vccd1 sky130_ef_sc_hd__decap_12
XFILLER_57_202 vssd1 vssd1 vccd1 vccd1 sky130_ef_sc_hd__decap_12
X_0649_ _0155_ vssd1 vssd1 vccd1 vccd1 _0203_ sky130_fd_sc_hd__clkbuf_1
XFILLER_40_102 vssd1 vssd1 vccd1 vccd1 sky130_ef_sc_hd__decap_12
XFILLER_25_198 vssd1 vssd1 vccd1 vccd1 sky130_fd_sc_hd__decap_6
XFILLER_13_349 vssd1 vssd1 vccd1 vccd1 sky130_ef_sc_hd__decap_12
XFILLER_15_33 vssd1 vssd1 vccd1 vccd1 sky130_ef_sc_hd__decap_12
XFILLER_40_157 vssd1 vssd1 vccd1 vccd1 sky130_fd_sc_hd__fill_2
XFILLER_21_393 vssd1 vssd1 vccd1 vccd1 sky130_fd_sc_hd__decap_8
Xoutput87 net87 vssd1 vssd1 vccd1 vccd1 chany_bottom_out[15] sky130_fd_sc_hd__buf_2
Xoutput65 net65 vssd1 vssd1 vccd1 vccd1 chanx_right_out[12] sky130_fd_sc_hd__buf_2
Xoutput76 net76 vssd1 vssd1 vccd1 vccd1 chanx_right_out[5] sky130_fd_sc_hd__buf_2
Xoutput98 net98 vssd1 vssd1 vccd1 vccd1 chany_bottom_out[8] sky130_fd_sc_hd__buf_2
XFILLER_0_253 vssd1 vssd1 vccd1 vccd1 sky130_fd_sc_hd__fill_2
XFILLER_63_249 vssd1 vssd1 vccd1 vccd1 sky130_ef_sc_hd__decap_12
XFILLER_63_205 vssd1 vssd1 vccd1 vccd1 sky130_ef_sc_hd__decap_12
XFILLER_0_286 vssd1 vssd1 vccd1 vccd1 sky130_fd_sc_hd__decap_4
XFILLER_31_124 vssd1 vssd1 vccd1 vccd1 sky130_fd_sc_hd__decap_6
XFILLER_31_113 vssd1 vssd1 vccd1 vccd1 sky130_fd_sc_hd__fill_2
XFILLER_16_154 vssd1 vssd1 vccd1 vccd1 sky130_fd_sc_hd__decap_4
X_0434_ mem_bottom_track_25.DFFR_1_.Q vssd1 vssd1 vccd1 vccd1 _0345_ sky130_fd_sc_hd__inv_2
X_0503_ mem_bottom_track_37.DFFR_0_.Q vssd1 vssd1 vccd1 vccd1 _0302_ sky130_fd_sc_hd__inv_2
XTAP_168 vssd1 vccd1 sky130_fd_sc_hd__tapvpwrvgnd_1
XTAP_157 vssd1 vccd1 sky130_fd_sc_hd__tapvpwrvgnd_1
XTAP_146 vssd1 vccd1 sky130_fd_sc_hd__tapvpwrvgnd_1
XTAP_135 vssd1 vccd1 sky130_fd_sc_hd__tapvpwrvgnd_1
XTAP_179 vssd1 vccd1 sky130_fd_sc_hd__tapvpwrvgnd_1
XFILLER_39_279 vssd1 vssd1 vccd1 vccd1 sky130_fd_sc_hd__fill_1
XFILLER_7_9 vssd1 vssd1 vccd1 vccd1 sky130_fd_sc_hd__decap_4
XFILLER_45_249 vssd1 vssd1 vccd1 vccd1 sky130_fd_sc_hd__decap_6
XFILLER_45_205 vssd1 vssd1 vccd1 vccd1 sky130_fd_sc_hd__fill_1
XFILLER_53_293 vssd1 vssd1 vccd1 vccd1 sky130_ef_sc_hd__decap_12
XFILLER_13_113 vssd1 vssd1 vccd1 vccd1 sky130_fd_sc_hd__fill_2
XFILLER_42_64 vssd1 vssd1 vccd1 vccd1 sky130_ef_sc_hd__decap_12
XFILLER_5_378 vssd1 vssd1 vccd1 vccd1 sky130_ef_sc_hd__decap_12
XFILLER_21_190 vssd1 vssd1 vccd1 vccd1 sky130_fd_sc_hd__fill_2
XFILLER_3_69 vssd1 vssd1 vccd1 vccd1 sky130_ef_sc_hd__decap_12
XFILLER_36_227 vssd1 vssd1 vccd1 vccd1 sky130_fd_sc_hd__decap_3
X_0983_ mux_right_track_22.out vssd1 vssd1 vccd1 vccd1 net64 sky130_fd_sc_hd__clkbuf_1
XFILLER_12_190 vssd1 vssd1 vccd1 vccd1 sky130_fd_sc_hd__decap_6
X_0417_ mem_bottom_track_31.DFFR_0_.Q vssd1 vssd1 vccd1 vccd1 _0358_ sky130_fd_sc_hd__inv_2
XFILLER_50_241 vssd1 vssd1 vccd1 vccd1 sky130_fd_sc_hd__decap_4
XFILLER_42_208 vssd1 vssd1 vccd1 vccd1 sky130_fd_sc_hd__decap_4
XFILLER_35_293 vssd1 vssd1 vccd1 vccd1 sky130_fd_sc_hd__fill_2
XFILLER_6_109 vssd1 vssd1 vccd1 vccd1 sky130_ef_sc_hd__decap_12
XFILLER_12_56 vssd1 vssd1 vccd1 vccd1 sky130_fd_sc_hd__decap_4
XFILLER_58_363 vssd1 vssd1 vccd1 vccd1 sky130_fd_sc_hd__fill_1
XFILLER_37_53 vssd1 vssd1 vccd1 vccd1 sky130_fd_sc_hd__decap_3
XFILLER_18_205 vssd1 vssd1 vccd1 vccd1 sky130_fd_sc_hd__fill_2
XFILLER_45_7 vssd1 vssd1 vccd1 vccd1 sky130_fd_sc_hd__fill_1
XFILLER_5_153 vssd1 vssd1 vccd1 vccd1 sky130_fd_sc_hd__fill_1
XFILLER_64_333 vssd1 vssd1 vccd1 vccd1 sky130_fd_sc_hd__decap_3
XFILLER_49_385 vssd1 vssd1 vccd1 vccd1 sky130_fd_sc_hd__decap_6
X_1182_ mux_bottom_track_25.mux_2level_tapbuf_basis_input2_mem1_0_out _0345_ vssd1
+ vssd1 vccd1 vccd1 mux_bottom_track_25.mux_2level_tapbuf_basis_input2_mem1_1_out
+ sky130_fd_sc_hd__ebufn_2
XFILLER_32_263 vssd1 vssd1 vccd1 vccd1 sky130_fd_sc_hd__decap_4
XFILLER_17_260 vssd1 vssd1 vccd1 vccd1 sky130_fd_sc_hd__decap_4
X_0897_ prog_clk mem_bottom_track_13.DFFR_0_.Q _0000_ vssd1 vssd1 vccd1 vccd1 mem_bottom_track_13.DFFR_1_.Q
+ sky130_fd_sc_hd__dfrtp_2
XFILLER_59_149 vssd1 vssd1 vccd1 vccd1 sky130_fd_sc_hd__decap_4
XFILLER_59_105 vssd1 vssd1 vccd1 vccd1 sky130_fd_sc_hd__decap_6
XFILLER_23_230 vssd1 vssd1 vccd1 vccd1 sky130_ef_sc_hd__decap_12
XFILLER_3_3 vssd1 vssd1 vccd1 vccd1 sky130_ef_sc_hd__decap_12
XFILLER_2_112 vssd1 vssd1 vccd1 vccd1 sky130_ef_sc_hd__decap_12
XFILLER_58_182 vssd1 vssd1 vccd1 vccd1 sky130_ef_sc_hd__decap_12
XFILLER_48_96 vssd1 vssd1 vccd1 vccd1 sky130_fd_sc_hd__decap_6
XFILLER_48_85 vssd1 vssd1 vccd1 vccd1 sky130_fd_sc_hd__fill_2
XFILLER_46_333 vssd1 vssd1 vccd1 vccd1 sky130_ef_sc_hd__decap_12
XFILLER_46_377 vssd1 vssd1 vccd1 vccd1 sky130_ef_sc_hd__decap_12
XFILLER_0_37 vssd1 vssd1 vccd1 vccd1 sky130_fd_sc_hd__fill_1
X_0751_ net45 vssd1 vssd1 vccd1 vccd1 mux_right_track_24.INVTX1_1_.out sky130_fd_sc_hd__clkinv_2
X_0820_ _0173_ vssd1 vssd1 vccd1 vccd1 _0000_ sky130_fd_sc_hd__inv_2
XFILLER_9_57 vssd1 vssd1 vccd1 vccd1 sky130_ef_sc_hd__decap_12
XFILLER_36_3 vssd1 vssd1 vccd1 vccd1 sky130_fd_sc_hd__fill_2
X_0682_ mem_right_track_0.DFFR_0_.Q vssd1 vssd1 vccd1 vccd1 _0182_ sky130_fd_sc_hd__inv_2
XFILLER_64_174 vssd1 vssd1 vccd1 vccd1 sky130_fd_sc_hd__decap_8
XFILLER_64_141 vssd1 vssd1 vccd1 vccd1 sky130_fd_sc_hd__decap_8
X_1096_ mux_bottom_track_27.INVTX1_1_.out _0259_ vssd1 vssd1 vccd1 vccd1 mux_bottom_track_7.mux_2level_tapbuf_basis_input2_mem1_1_out
+ sky130_fd_sc_hd__ebufn_1
XFILLER_37_311 vssd1 vssd1 vccd1 vccd1 sky130_ef_sc_hd__decap_12
X_1165_ mux_right_track_32.INVTX1_1_.out _0328_ vssd1 vssd1 vccd1 vccd1 mux_right_track_32.mux_2level_tapbuf_basis_input2_mem1_0_out
+ sky130_fd_sc_hd__ebufn_1
XFILLER_55_174 vssd1 vssd1 vccd1 vccd1 sky130_ef_sc_hd__decap_12
XFILLER_28_377 vssd1 vssd1 vccd1 vccd1 sky130_ef_sc_hd__decap_12
XFILLER_7_237 vssd1 vssd1 vccd1 vccd1 sky130_fd_sc_hd__decap_4
XFILLER_11_222 vssd1 vssd1 vccd1 vccd1 sky130_fd_sc_hd__fill_2
XFILLER_11_233 vssd1 vssd1 vccd1 vccd1 sky130_fd_sc_hd__decap_3
XTAP_509 vssd1 vccd1 sky130_fd_sc_hd__tapvpwrvgnd_1
XFILLER_46_185 vssd1 vssd1 vccd1 vccd1 sky130_fd_sc_hd__fill_1
XFILLER_46_174 vssd1 vssd1 vccd1 vccd1 sky130_fd_sc_hd__decap_4
XFILLER_46_141 vssd1 vssd1 vccd1 vccd1 sky130_ef_sc_hd__decap_12
XFILLER_34_314 vssd1 vssd1 vccd1 vccd1 sky130_fd_sc_hd__decap_8
XFILLER_61_111 vssd1 vssd1 vccd1 vccd1 sky130_fd_sc_hd__fill_1
X_0665_ mem_right_track_4.DFFR_0_.Q vssd1 vssd1 vccd1 vccd1 _0194_ sky130_fd_sc_hd__inv_2
X_0734_ net6 vssd1 vssd1 vccd1 vccd1 mux_bottom_track_13.INVTX1_2_.out sky130_fd_sc_hd__inv_2
X_0803_ _0171_ vssd1 vssd1 vccd1 vccd1 _0059_ sky130_fd_sc_hd__inv_2
X_0596_ mem_bottom_track_1.DFFR_0_.D vssd1 vssd1 vccd1 vccd1 _0138_ sky130_fd_sc_hd__clkbuf_1
X_1148_ net123 _0311_ vssd1 vssd1 vccd1 vccd1 mux_right_track_24.mux_2level_tapbuf_basis_input2_mem1_1_out
+ sky130_fd_sc_hd__ebufn_1
XFILLER_37_185 vssd1 vssd1 vccd1 vccd1 sky130_fd_sc_hd__decap_4
X_1079_ mux_right_track_0.INVTX1_0_.out _0242_ vssd1 vssd1 vccd1 vccd1 mux_right_track_36.mux_2level_tapbuf_basis_input2_mem1_0_out
+ sky130_fd_sc_hd__ebufn_1
XFILLER_29_54 vssd1 vssd1 vccd1 vccd1 sky130_fd_sc_hd__fill_2
XFILLER_28_152 vssd1 vssd1 vccd1 vccd1 sky130_fd_sc_hd__decap_6
XFILLER_28_141 vssd1 vssd1 vccd1 vccd1 sky130_fd_sc_hd__decap_8
XFILLER_43_166 vssd1 vssd1 vccd1 vccd1 sky130_fd_sc_hd__fill_2
XFILLER_43_111 vssd1 vssd1 vccd1 vccd1 sky130_fd_sc_hd__fill_1
XFILLER_31_328 vssd1 vssd1 vccd1 vccd1 sky130_fd_sc_hd__decap_8
XFILLER_6_36 vssd1 vssd1 vccd1 vccd1 sky130_fd_sc_hd__decap_4