* NGSPICE file created from sb_1__1_.ext - technology: sky130A

* Black-box entry subcircuit for sky130_fd_sc_hd__tapvpwrvgnd_1 abstract view
.subckt sky130_fd_sc_hd__tapvpwrvgnd_1 VGND VPWR
.ends

* Black-box entry subcircuit for sky130_fd_sc_hd__decap_4 abstract view
.subckt sky130_fd_sc_hd__decap_4 VGND VNB VPB VPWR
.ends

* Black-box entry subcircuit for sky130_fd_sc_hd__decap_6 abstract view
.subckt sky130_fd_sc_hd__decap_6 VGND VNB VPB VPWR
.ends

* Black-box entry subcircuit for sky130_fd_sc_hd__fill_2 abstract view
.subckt sky130_fd_sc_hd__fill_2 VGND VNB VPB VPWR
.ends

* Black-box entry subcircuit for sky130_ef_sc_hd__decap_12 abstract view
.subckt sky130_ef_sc_hd__decap_12 VGND VNB VPB VPWR
.ends

* Black-box entry subcircuit for sky130_fd_sc_hd__decap_8 abstract view
.subckt sky130_fd_sc_hd__decap_8 VGND VNB VPB VPWR
.ends

* Black-box entry subcircuit for sky130_fd_sc_hd__clkbuf_1 abstract view
.subckt sky130_fd_sc_hd__clkbuf_1 A VGND VNB VPB VPWR X
.ends

* Black-box entry subcircuit for sky130_fd_sc_hd__inv_2 abstract view
.subckt sky130_fd_sc_hd__inv_2 A VGND VNB VPB VPWR Y
.ends

* Black-box entry subcircuit for sky130_fd_sc_hd__ebufn_4 abstract view
.subckt sky130_fd_sc_hd__ebufn_4 A TE_B VGND VNB VPB VPWR Z
.ends

* Black-box entry subcircuit for sky130_fd_sc_hd__ebufn_8 abstract view
.subckt sky130_fd_sc_hd__ebufn_8 A TE_B VGND VNB VPB VPWR Z
.ends

* Black-box entry subcircuit for sky130_fd_sc_hd__fill_1 abstract view
.subckt sky130_fd_sc_hd__fill_1 VGND VNB VPB VPWR
.ends

* Black-box entry subcircuit for sky130_fd_sc_hd__clkbuf_2 abstract view
.subckt sky130_fd_sc_hd__clkbuf_2 A VGND VNB VPB VPWR X
.ends

* Black-box entry subcircuit for sky130_fd_sc_hd__dfrtp_1 abstract view
.subckt sky130_fd_sc_hd__dfrtp_1 CLK D RESET_B VGND VNB VPB VPWR Q
.ends

* Black-box entry subcircuit for sky130_fd_sc_hd__dfrtp_4 abstract view
.subckt sky130_fd_sc_hd__dfrtp_4 CLK D RESET_B VGND VNB VPB VPWR Q
.ends

* Black-box entry subcircuit for sky130_fd_sc_hd__decap_3 abstract view
.subckt sky130_fd_sc_hd__decap_3 VGND VNB VPB VPWR
.ends

* Black-box entry subcircuit for sky130_fd_sc_hd__buf_4 abstract view
.subckt sky130_fd_sc_hd__buf_4 A VGND VNB VPB VPWR X
.ends

* Black-box entry subcircuit for sky130_fd_sc_hd__diode_2 abstract view
.subckt sky130_fd_sc_hd__diode_2 DIODE VGND VNB VPB VPWR
.ends

* Black-box entry subcircuit for sky130_fd_sc_hd__buf_2 abstract view
.subckt sky130_fd_sc_hd__buf_2 A VGND VNB VPB VPWR X
.ends

* Black-box entry subcircuit for sky130_fd_sc_hd__ebufn_1 abstract view
.subckt sky130_fd_sc_hd__ebufn_1 A TE_B VGND VNB VPB VPWR Z
.ends

* Black-box entry subcircuit for sky130_fd_sc_hd__ebufn_2 abstract view
.subckt sky130_fd_sc_hd__ebufn_2 A TE_B VGND VNB VPB VPWR Z
.ends

* Black-box entry subcircuit for sky130_fd_sc_hd__clkbuf_8 abstract view
.subckt sky130_fd_sc_hd__clkbuf_8 A VGND VNB VPB VPWR X
.ends

* Black-box entry subcircuit for sky130_fd_sc_hd__conb_1 abstract view
.subckt sky130_fd_sc_hd__conb_1 VGND VNB VPB VPWR HI LO
.ends

* Black-box entry subcircuit for sky130_fd_sc_hd__dfrtp_2 abstract view
.subckt sky130_fd_sc_hd__dfrtp_2 CLK D RESET_B VGND VNB VPB VPWR Q
.ends

* Black-box entry subcircuit for sky130_fd_sc_hd__clkbuf_16 abstract view
.subckt sky130_fd_sc_hd__clkbuf_16 A VGND VNB VPB VPWR X
.ends

* Black-box entry subcircuit for sky130_fd_sc_hd__dlymetal6s2s_1 abstract view
.subckt sky130_fd_sc_hd__dlymetal6s2s_1 A VGND VNB VPB VPWR X
.ends

* Black-box entry subcircuit for sky130_fd_sc_hd__clkinv_2 abstract view
.subckt sky130_fd_sc_hd__clkinv_2 A VGND VNB VPB VPWR Y
.ends

* Black-box entry subcircuit for sky130_fd_sc_hd__buf_6 abstract view
.subckt sky130_fd_sc_hd__buf_6 A VGND VNB VPB VPWR X
.ends

* Black-box entry subcircuit for sky130_fd_sc_hd__clkbuf_4 abstract view
.subckt sky130_fd_sc_hd__clkbuf_4 A VGND VNB VPB VPWR X
.ends

.subckt sb_1__1_ bottom_left_grid_right_width_0_height_0_subtile_0__pin_O_1_ bottom_left_grid_right_width_0_height_0_subtile_0__pin_O_5_
+ bottom_right_grid_left_width_0_height_0_subtile_0__pin_O_3_ bottom_right_grid_left_width_0_height_0_subtile_0__pin_O_7_
+ ccff_head ccff_tail chanx_left_in[0] chanx_left_in[10] chanx_left_in[11] chanx_left_in[12]
+ chanx_left_in[13] chanx_left_in[14] chanx_left_in[15] chanx_left_in[16] chanx_left_in[17]
+ chanx_left_in[18] chanx_left_in[1] chanx_left_in[2] chanx_left_in[3] chanx_left_in[4]
+ chanx_left_in[5] chanx_left_in[6] chanx_left_in[7] chanx_left_in[8] chanx_left_in[9]
+ chanx_left_out[0] chanx_left_out[10] chanx_left_out[11] chanx_left_out[12] chanx_left_out[13]
+ chanx_left_out[14] chanx_left_out[15] chanx_left_out[16] chanx_left_out[17] chanx_left_out[18]
+ chanx_left_out[1] chanx_left_out[2] chanx_left_out[3] chanx_left_out[4] chanx_left_out[5]
+ chanx_left_out[6] chanx_left_out[7] chanx_left_out[8] chanx_left_out[9] chanx_right_in[0]
+ chanx_right_in[10] chanx_right_in[11] chanx_right_in[12] chanx_right_in[13] chanx_right_in[14]
+ chanx_right_in[15] chanx_right_in[16] chanx_right_in[17] chanx_right_in[18] chanx_right_in[1]
+ chanx_right_in[2] chanx_right_in[3] chanx_right_in[4] chanx_right_in[5] chanx_right_in[6]
+ chanx_right_in[7] chanx_right_in[8] chanx_right_in[9] chanx_right_out[0] chanx_right_out[10]
+ chanx_right_out[11] chanx_right_out[12] chanx_right_out[13] chanx_right_out[14]
+ chanx_right_out[15] chanx_right_out[16] chanx_right_out[17] chanx_right_out[18]
+ chanx_right_out[1] chanx_right_out[2] chanx_right_out[3] chanx_right_out[4] chanx_right_out[5]
+ chanx_right_out[6] chanx_right_out[7] chanx_right_out[8] chanx_right_out[9] chany_bottom_in[0]
+ chany_bottom_in[10] chany_bottom_in[11] chany_bottom_in[12] chany_bottom_in[13]
+ chany_bottom_in[14] chany_bottom_in[15] chany_bottom_in[16] chany_bottom_in[17]
+ chany_bottom_in[18] chany_bottom_in[1] chany_bottom_in[2] chany_bottom_in[3] chany_bottom_in[4]
+ chany_bottom_in[5] chany_bottom_in[6] chany_bottom_in[7] chany_bottom_in[8] chany_bottom_in[9]
+ chany_bottom_out[0] chany_bottom_out[10] chany_bottom_out[11] chany_bottom_out[12]
+ chany_bottom_out[13] chany_bottom_out[14] chany_bottom_out[15] chany_bottom_out[16]
+ chany_bottom_out[17] chany_bottom_out[18] chany_bottom_out[1] chany_bottom_out[2]
+ chany_bottom_out[3] chany_bottom_out[4] chany_bottom_out[5] chany_bottom_out[6]
+ chany_bottom_out[7] chany_bottom_out[8] chany_bottom_out[9] chany_top_in[0] chany_top_in[10]
+ chany_top_in[11] chany_top_in[12] chany_top_in[13] chany_top_in[14] chany_top_in[15]
+ chany_top_in[16] chany_top_in[17] chany_top_in[18] chany_top_in[1] chany_top_in[2]
+ chany_top_in[3] chany_top_in[4] chany_top_in[5] chany_top_in[6] chany_top_in[7]
+ chany_top_in[8] chany_top_in[9] chany_top_out[0] chany_top_out[10] chany_top_out[11]
+ chany_top_out[12] chany_top_out[13] chany_top_out[14] chany_top_out[15] chany_top_out[16]
+ chany_top_out[17] chany_top_out[18] chany_top_out[1] chany_top_out[2] chany_top_out[3]
+ chany_top_out[4] chany_top_out[5] chany_top_out[6] chany_top_out[7] chany_top_out[8]
+ chany_top_out[9] left_bottom_grid_top_width_0_height_0_subtile_0__pin_O_0_ left_bottom_grid_top_width_0_height_0_subtile_0__pin_O_4_
+ left_top_grid_bottom_width_0_height_0_subtile_0__pin_O_2_ left_top_grid_bottom_width_0_height_0_subtile_0__pin_O_6_
+ pReset prog_clk right_bottom_grid_top_width_0_height_0_subtile_0__pin_O_0_ right_bottom_grid_top_width_0_height_0_subtile_0__pin_O_4_
+ right_top_grid_bottom_width_0_height_0_subtile_0__pin_O_2_ right_top_grid_bottom_width_0_height_0_subtile_0__pin_O_6_
+ top_left_grid_right_width_0_height_0_subtile_0__pin_O_1_ top_left_grid_right_width_0_height_0_subtile_0__pin_O_5_
+ top_right_grid_left_width_0_height_0_subtile_0__pin_O_3_ top_right_grid_left_width_0_height_0_subtile_0__pin_O_7_
+ vccd1 vssd1
XTAP_177 vssd1 vccd1 sky130_fd_sc_hd__tapvpwrvgnd_1
XTAP_188 vssd1 vccd1 sky130_fd_sc_hd__tapvpwrvgnd_1
XTAP_199 vssd1 vccd1 sky130_fd_sc_hd__tapvpwrvgnd_1
XFILLER_52_29 vssd1 vssd1 vccd1 vccd1 sky130_fd_sc_hd__decap_4
XFILLER_22_177 vssd1 vssd1 vccd1 vccd1 sky130_fd_sc_hd__decap_4
XFILLER_45_247 vssd1 vssd1 vccd1 vccd1 sky130_fd_sc_hd__decap_6
XFILLER_45_225 vssd1 vssd1 vccd1 vccd1 sky130_fd_sc_hd__fill_2
XFILLER_26_85 vssd1 vssd1 vccd1 vccd1 sky130_fd_sc_hd__fill_2
XFILLER_26_63 vssd1 vssd1 vccd1 vccd1 sky130_fd_sc_hd__decap_4
XFILLER_26_41 vssd1 vssd1 vccd1 vccd1 sky130_fd_sc_hd__decap_4
XFILLER_13_166 vssd1 vssd1 vccd1 vccd1 sky130_fd_sc_hd__fill_2
XFILLER_13_188 vssd1 vssd1 vccd1 vccd1 sky130_fd_sc_hd__decap_6
XFILLER_54_9 vssd1 vssd1 vccd1 vccd1 sky130_ef_sc_hd__decap_12
XFILLER_5_376 vssd1 vssd1 vccd1 vccd1 sky130_fd_sc_hd__decap_8
XFILLER_5_354 vssd1 vssd1 vccd1 vccd1 sky130_fd_sc_hd__fill_2
X_1270_ net13 vssd1 vssd1 vccd1 vccd1 net123 sky130_fd_sc_hd__clkbuf_1
X_0985_ _0160_ vssd1 vssd1 vccd1 vccd1 _0067_ sky130_fd_sc_hd__inv_2
X_1606_ mux_bottom_track_33.mux_2level_tapbuf_basis_input3_mem3_1_out _0449_ vssd1
+ vssd1 vccd1 vccd1 mux_bottom_track_33.mux_2level_tapbuf_basis_input3_mem3_3_out
+ sky130_fd_sc_hd__ebufn_4
XFILLER_59_317 vssd1 vssd1 vccd1 vccd1 sky130_ef_sc_hd__decap_12
X_1468_ mux_bottom_track_1.INVTX1_4_.out _0311_ vssd1 vssd1 vccd1 vccd1 mux_bottom_track_1.mux_2level_tapbuf_basis_input4_mem4_1_out
+ sky130_fd_sc_hd__ebufn_4
X_1399_ mux_bottom_track_1.INVTX1_1_.out _0242_ vssd1 vssd1 vccd1 vccd1 mux_right_track_0.mux_2level_tapbuf_basis_input4_mem4_0_out
+ sky130_fd_sc_hd__ebufn_8
X_1537_ mux_left_track_9.INVTX1_9_.out _0380_ vssd1 vssd1 vccd1 vccd1 mux_left_track_9.mux_2level_tapbuf_basis_input4_mem4_2_out
+ sky130_fd_sc_hd__ebufn_4
XFILLER_63_17 vssd1 vssd1 vccd1 vccd1 sky130_fd_sc_hd__decap_4
XFILLER_42_228 vssd1 vssd1 vccd1 vccd1 sky130_fd_sc_hd__decap_6
XFILLER_27_225 vssd1 vssd1 vccd1 vccd1 sky130_fd_sc_hd__decap_4
XFILLER_2_313 vssd1 vssd1 vccd1 vccd1 sky130_fd_sc_hd__fill_1
XFILLER_12_65 vssd1 vssd1 vccd1 vccd1 sky130_fd_sc_hd__decap_4
X_0770_ mem_top_track_16.DFFR_0_.D vssd1 vssd1 vccd1 vccd1 _0187_ sky130_fd_sc_hd__inv_2
X_1253_ net30 vssd1 vssd1 vccd1 vccd1 net102 sky130_fd_sc_hd__clkbuf_1
XFILLER_56_309 vssd1 vssd1 vccd1 vccd1 sky130_ef_sc_hd__decap_12
X_1322_ net55 vssd1 vssd1 vccd1 vccd1 net165 sky130_fd_sc_hd__clkbuf_2
XFILLER_1_390 vssd1 vssd1 vccd1 vccd1 sky130_fd_sc_hd__fill_2
XFILLER_49_361 vssd1 vssd1 vccd1 vccd1 sky130_ef_sc_hd__decap_12
X_1184_ clknet_4_4_0_prog_clk mem_left_track_9.DFFR_4_.Q _0106_ vssd1 vssd1 vccd1
+ vccd1 mem_left_track_9.DFFR_5_.Q sky130_fd_sc_hd__dfrtp_1
X_0968_ _0159_ vssd1 vssd1 vccd1 vccd1 _0051_ sky130_fd_sc_hd__inv_2
XFILLER_20_401 vssd1 vssd1 vccd1 vccd1 sky130_fd_sc_hd__fill_1
X_0899_ net28 vssd1 vssd1 vccd1 vccd1 mux_bottom_track_33.INVTX1_3_.out sky130_fd_sc_hd__inv_2
XFILLER_59_169 vssd1 vssd1 vccd1 vccd1 sky130_ef_sc_hd__decap_12
XFILLER_59_125 vssd1 vssd1 vccd1 vccd1 sky130_ef_sc_hd__decap_12
XFILLER_23_272 vssd1 vssd1 vccd1 vccd1 sky130_fd_sc_hd__decap_8
XFILLER_7_405 vssd1 vssd1 vccd1 vccd1 sky130_fd_sc_hd__fill_2
XFILLER_38_309 vssd1 vssd1 vccd1 vccd1 sky130_fd_sc_hd__fill_2
XFILLER_64_71 vssd1 vssd1 vccd1 vccd1 sky130_fd_sc_hd__fill_2
XFILLER_0_57 vssd1 vssd1 vccd1 vccd1 sky130_fd_sc_hd__decap_4
X_0822_ net67 vssd1 vssd1 vccd1 vccd1 mux_bottom_track_1.INVTX1_2_.out sky130_fd_sc_hd__inv_2
XFILLER_9_33 vssd1 vssd1 vccd1 vccd1 sky130_fd_sc_hd__decap_4
X_0684_ mem_right_track_24.DFFR_1_.Q vssd1 vssd1 vccd1 vccd1 _0287_ sky130_fd_sc_hd__inv_2
XFILLER_50_3 vssd1 vssd1 vccd1 vccd1 sky130_fd_sc_hd__fill_2
X_0753_ mem_top_track_16.DFFR_1_.Q vssd1 vssd1 vccd1 vccd1 _0210_ sky130_fd_sc_hd__inv_2
XFILLER_56_139 vssd1 vssd1 vccd1 vccd1 sky130_fd_sc_hd__fill_1
X_1305_ net63 vssd1 vssd1 vccd1 vccd1 net144 sky130_fd_sc_hd__clkbuf_1
XFILLER_37_342 vssd1 vssd1 vccd1 vccd1 sky130_fd_sc_hd__decap_4
XFILLER_64_194 vssd1 vssd1 vccd1 vccd1 sky130_fd_sc_hd__fill_2
XFILLER_52_389 vssd1 vssd1 vccd1 vccd1 sky130_ef_sc_hd__decap_12
XFILLER_52_345 vssd1 vssd1 vccd1 vccd1 sky130_ef_sc_hd__decap_12
X_1167_ clknet_4_3_0_prog_clk mem_bottom_track_25.DFFR_5_.Q _0089_ vssd1 vssd1 vccd1
+ vccd1 mem_bottom_track_25.DFFR_6_.Q sky130_fd_sc_hd__dfrtp_1
X_1098_ clknet_4_5_0_prog_clk mem_top_track_16.DFFR_2_.Q _0020_ vssd1 vssd1 vccd1
+ vccd1 mem_top_track_16.DFFR_3_.Q sky130_fd_sc_hd__dfrtp_4
XFILLER_60_29 vssd1 vssd1 vccd1 vccd1 sky130_ef_sc_hd__decap_12
XFILLER_20_253 vssd1 vssd1 vccd1 vccd1 sky130_fd_sc_hd__decap_4
XFILLER_62_109 vssd1 vssd1 vccd1 vccd1 sky130_ef_sc_hd__decap_12
XFILLER_55_161 vssd1 vssd1 vccd1 vccd1 sky130_fd_sc_hd__decap_6
XFILLER_43_301 vssd1 vssd1 vccd1 vccd1 sky130_fd_sc_hd__decap_4
XFILLER_28_353 vssd1 vssd1 vccd1 vccd1 sky130_fd_sc_hd__decap_4
XFILLER_18_75 vssd1 vssd1 vccd1 vccd1 sky130_fd_sc_hd__decap_4
XFILLER_34_85 vssd1 vssd1 vccd1 vccd1 sky130_ef_sc_hd__decap_12
XFILLER_34_41 vssd1 vssd1 vccd1 vccd1 sky130_ef_sc_hd__decap_12
XTAP_507 vssd1 vccd1 sky130_fd_sc_hd__tapvpwrvgnd_1
XFILLER_50_95 vssd1 vssd1 vccd1 vccd1 sky130_fd_sc_hd__decap_8
XFILLER_59_93 vssd1 vssd1 vccd1 vccd1 sky130_ef_sc_hd__decap_12
XTAP_529 vssd1 vccd1 sky130_fd_sc_hd__tapvpwrvgnd_1
XTAP_518 vssd1 vccd1 sky130_fd_sc_hd__tapvpwrvgnd_1
XFILLER_38_106 vssd1 vssd1 vccd1 vccd1 sky130_fd_sc_hd__decap_4
XFILLER_53_109 vssd1 vssd1 vccd1 vccd1 sky130_fd_sc_hd__decap_3
XFILLER_46_194 vssd1 vssd1 vccd1 vccd1 sky130_fd_sc_hd__fill_2
XFILLER_34_389 vssd1 vssd1 vccd1 vccd1 sky130_ef_sc_hd__decap_12
XFILLER_34_356 vssd1 vssd1 vccd1 vccd1 sky130_fd_sc_hd__decap_8
X_1021_ _0152_ vssd1 vssd1 vccd1 vccd1 _0164_ sky130_fd_sc_hd__buf_4
X_0805_ mux_right_track_0.mux_2level_tapbuf_basis_input4_mem4_3_out vssd1 vssd1 vccd1
+ vccd1 mux_right_track_0.out sky130_fd_sc_hd__inv_2
X_0667_ mem_bottom_track_1.DFFR_2_.Q vssd1 vssd1 vccd1 vccd1 _0304_ sky130_fd_sc_hd__inv_2
X_0736_ mem_top_track_24.DFFR_2_.Q vssd1 vssd1 vccd1 vccd1 _0227_ sky130_fd_sc_hd__inv_2
X_0598_ mem_left_track_1.DFFR_2_.Q vssd1 vssd1 vccd1 vccd1 _0365_ sky130_fd_sc_hd__inv_2
XFILLER_37_150 vssd1 vssd1 vccd1 vccd1 sky130_fd_sc_hd__fill_1
XFILLER_29_117 vssd1 vssd1 vccd1 vccd1 sky130_fd_sc_hd__fill_1
XFILLER_25_334 vssd1 vssd1 vccd1 vccd1 sky130_fd_sc_hd__fill_2
X_1219_ clknet_4_10_0_prog_clk mem_bottom_track_33.DFFR_3_.Q _0141_ vssd1 vssd1 vccd1
+ vccd1 mem_bottom_track_33.DFFR_4_.Q sky130_fd_sc_hd__dfrtp_1
XFILLER_52_197 vssd1 vssd1 vccd1 vccd1 sky130_ef_sc_hd__decap_12
XFILLER_40_326 vssd1 vssd1 vccd1 vccd1 sky130_fd_sc_hd__decap_8
XFILLER_4_238 vssd1 vssd1 vccd1 vccd1 sky130_fd_sc_hd__decap_4
XFILLER_20_21 vssd1 vssd1 vccd1 vccd1 sky130_fd_sc_hd__decap_6
XFILLER_20_65 vssd1 vssd1 vccd1 vccd1 sky130_fd_sc_hd__decap_4
XFILLER_29_85 vssd1 vssd1 vccd1 vccd1 sky130_fd_sc_hd__fill_1
XFILLER_28_194 vssd1 vssd1 vccd1 vccd1 sky130_fd_sc_hd__fill_2
XFILLER_28_183 vssd1 vssd1 vccd1 vccd1 sky130_fd_sc_hd__fill_1
XFILLER_31_359 vssd1 vssd1 vccd1 vccd1 sky130_fd_sc_hd__decap_4
XFILLER_31_337 vssd1 vssd1 vccd1 vccd1 sky130_fd_sc_hd__fill_2
X_1570_ mux_left_track_25.INVTX1_10_.out _0413_ vssd1 vssd1 vccd1 vccd1 mux_left_track_25.mux_2level_tapbuf_basis_input4_mem4_2_out
+ sky130_fd_sc_hd__ebufn_8
XTAP_348 vssd1 vccd1 sky130_fd_sc_hd__tapvpwrvgnd_1
XTAP_337 vssd1 vccd1 sky130_fd_sc_hd__tapvpwrvgnd_1
X_0521_ mem_bottom_track_1.DFFR_0_.D vssd1 vssd1 vccd1 vccd1 _0438_ sky130_fd_sc_hd__inv_2
XTAP_326 vssd1 vccd1 sky130_fd_sc_hd__tapvpwrvgnd_1
XTAP_315 vssd1 vccd1 sky130_fd_sc_hd__tapvpwrvgnd_1
XTAP_304 vssd1 vccd1 sky130_fd_sc_hd__tapvpwrvgnd_1
XANTENNA_5 mux_bottom_track_33.INVTX1_4_.out vssd1 vssd1 vccd1 vccd1 sky130_fd_sc_hd__diode_2
XTAP_359 vssd1 vccd1 sky130_fd_sc_hd__tapvpwrvgnd_1
XFILLER_13_3 vssd1 vssd1 vccd1 vccd1 sky130_fd_sc_hd__fill_2
XFILLER_19_161 vssd1 vssd1 vccd1 vccd1 sky130_fd_sc_hd__decap_6
XFILLER_34_197 vssd1 vssd1 vccd1 vccd1 sky130_fd_sc_hd__decap_6
XFILLER_22_304 vssd1 vssd1 vccd1 vccd1 sky130_fd_sc_hd__decap_4
X_1004_ _0162_ vssd1 vssd1 vccd1 vccd1 _0084_ sky130_fd_sc_hd__inv_2
XFILLER_30_370 vssd1 vssd1 vccd1 vccd1 sky130_ef_sc_hd__decap_12
XFILLER_57_223 vssd1 vssd1 vccd1 vccd1 sky130_fd_sc_hd__fill_1
X_0719_ mem_right_track_0.DFFR_3_.Q vssd1 vssd1 vccd1 vccd1 _0244_ sky130_fd_sc_hd__inv_2
XFILLER_40_156 vssd1 vssd1 vccd1 vccd1 sky130_fd_sc_hd__decap_4
XFILLER_40_134 vssd1 vssd1 vccd1 vccd1 sky130_fd_sc_hd__fill_1
XFILLER_31_53 vssd1 vssd1 vccd1 vccd1 sky130_fd_sc_hd__decap_3
XFILLER_25_186 vssd1 vssd1 vccd1 vccd1 sky130_fd_sc_hd__decap_4
XFILLER_13_337 vssd1 vssd1 vccd1 vccd1 sky130_fd_sc_hd__fill_2
XFILLER_15_54 vssd1 vssd1 vccd1 vccd1 sky130_fd_sc_hd__fill_2
Xoutput97 net97 vssd1 vssd1 vccd1 vccd1 chanx_left_out[10] sky130_fd_sc_hd__buf_2
XFILLER_56_83 vssd1 vssd1 vccd1 vccd1 sky130_fd_sc_hd__fill_1
XFILLER_48_212 vssd1 vssd1 vccd1 vccd1 sky130_fd_sc_hd__decap_4
XFILLER_31_167 vssd1 vssd1 vccd1 vccd1 sky130_fd_sc_hd__fill_1
XFILLER_16_186 vssd1 vssd1 vccd1 vccd1 sky130_fd_sc_hd__decap_8
XFILLER_16_197 vssd1 vssd1 vccd1 vccd1 sky130_fd_sc_hd__fill_2
X_1622_ mux_bottom_track_33.INVTX1_3_.out _0465_ vssd1 vssd1 vccd1 vccd1 mux_left_track_33.mux_2level_tapbuf_basis_input3_mem3_1_out
+ sky130_fd_sc_hd__ebufn_1
XFILLER_12_370 vssd1 vssd1 vccd1 vccd1 sky130_fd_sc_hd__decap_6
X_0504_ mem_left_track_33.DFFR_1_.Q vssd1 vssd1 vccd1 vccd1 _0465_ sky130_fd_sc_hd__inv_2
XFILLER_39_201 vssd1 vssd1 vccd1 vccd1 sky130_fd_sc_hd__decap_6
X_1553_ mux_left_track_17.INVTX1_9_.out _0396_ vssd1 vssd1 vccd1 vccd1 mux_left_track_17.mux_2level_tapbuf_basis_input4_mem4_2_out
+ sky130_fd_sc_hd__ebufn_2
XTAP_167 vssd1 vccd1 sky130_fd_sc_hd__tapvpwrvgnd_1
XTAP_156 vssd1 vccd1 sky130_fd_sc_hd__tapvpwrvgnd_1
XTAP_145 vssd1 vccd1 sky130_fd_sc_hd__tapvpwrvgnd_1
XTAP_134 vssd1 vccd1 sky130_fd_sc_hd__tapvpwrvgnd_1
XTAP_178 vssd1 vccd1 sky130_fd_sc_hd__tapvpwrvgnd_1
X_1484_ mux_bottom_track_9.INVTX1_4_.out _0327_ vssd1 vssd1 vccd1 vccd1 mux_bottom_track_9.mux_2level_tapbuf_basis_input4_mem4_1_out
+ sky130_fd_sc_hd__ebufn_4
XTAP_189 vssd1 vccd1 sky130_fd_sc_hd__tapvpwrvgnd_1
XFILLER_39_278 vssd1 vssd1 vccd1 vccd1 sky130_fd_sc_hd__fill_2
XFILLER_22_156 vssd1 vssd1 vccd1 vccd1 sky130_fd_sc_hd__decap_4
XFILLER_22_145 vssd1 vssd1 vccd1 vccd1 sky130_fd_sc_hd__fill_1
XFILLER_10_307 vssd1 vssd1 vccd1 vccd1 sky130_fd_sc_hd__fill_1
XFILLER_53_281 vssd1 vssd1 vccd1 vccd1 sky130_ef_sc_hd__decap_12
XFILLER_42_85 vssd1 vssd1 vccd1 vccd1 sky130_fd_sc_hd__decap_6
XFILLER_42_41 vssd1 vssd1 vccd1 vccd1 sky130_ef_sc_hd__decap_12
XFILLER_3_57 vssd1 vssd1 vccd1 vccd1 sky130_fd_sc_hd__decap_4
XFILLER_36_259 vssd1 vssd1 vccd1 vccd1 sky130_fd_sc_hd__fill_1
XFILLER_36_237 vssd1 vssd1 vccd1 vccd1 sky130_fd_sc_hd__decap_6
XFILLER_44_292 vssd1 vssd1 vccd1 vccd1 sky130_fd_sc_hd__decap_4
X_0984_ _0160_ vssd1 vssd1 vccd1 vccd1 _0066_ sky130_fd_sc_hd__inv_2
X_1605_ mux_bottom_track_33.INVTX1_0_.out _0448_ vssd1 vssd1 vccd1 vccd1 mux_right_track_32.mux_2level_tapbuf_basis_input3_mem3_0_out
+ sky130_fd_sc_hd__ebufn_2
X_1536_ net185 _0379_ vssd1 vssd1 vccd1 vccd1 mux_left_track_9.mux_2level_tapbuf_basis_input4_mem4_3_out
+ sky130_fd_sc_hd__ebufn_4
XFILLER_59_329 vssd1 vssd1 vccd1 vccd1 sky130_fd_sc_hd__decap_6
X_1467_ mux_bottom_track_1.INVTX1_8_.out _0310_ vssd1 vssd1 vccd1 vccd1 mux_bottom_track_1.mux_2level_tapbuf_basis_input4_mem4_2_out
+ sky130_fd_sc_hd__ebufn_2
X_1398_ mux_left_track_1.INVTX1_9_.out _0241_ vssd1 vssd1 vccd1 vccd1 mux_right_track_0.mux_2level_tapbuf_basis_input4_mem4_1_out
+ sky130_fd_sc_hd__ebufn_4
XFILLER_35_292 vssd1 vssd1 vccd1 vccd1 sky130_fd_sc_hd__decap_4
XFILLER_35_281 vssd1 vssd1 vccd1 vccd1 sky130_fd_sc_hd__decap_6
XFILLER_27_259 vssd1 vssd1 vccd1 vccd1 sky130_fd_sc_hd__decap_4
XFILLER_33_218 vssd1 vssd1 vccd1 vccd1 sky130_fd_sc_hd__decap_6
XFILLER_53_73 vssd1 vssd1 vccd1 vccd1 sky130_ef_sc_hd__decap_12
XFILLER_53_51 vssd1 vssd1 vccd1 vccd1 sky130_fd_sc_hd__decap_4
XFILLER_41_262 vssd1 vssd1 vccd1 vccd1 sky130_fd_sc_hd__decap_4
Xclkbuf_4_6_0_prog_clk clknet_0_prog_clk vssd1 vssd1 vccd1 vccd1 clknet_4_6_0_prog_clk
+ sky130_fd_sc_hd__clkbuf_8
X_1252_ mux_left_track_33.out vssd1 vssd1 vccd1 vccd1 net103 sky130_fd_sc_hd__clkbuf_1
XFILLER_49_373 vssd1 vssd1 vccd1 vccd1 sky130_ef_sc_hd__decap_12
X_1321_ mux_top_track_8.out vssd1 vssd1 vccd1 vccd1 net166 sky130_fd_sc_hd__clkbuf_1
XFILLER_64_387 vssd1 vssd1 vccd1 vccd1 sky130_fd_sc_hd__decap_4
XFILLER_64_365 vssd1 vssd1 vccd1 vccd1 sky130_fd_sc_hd__fill_2
X_1183_ clknet_4_9_0_prog_clk mem_left_track_9.DFFR_5_.Q _0105_ vssd1 vssd1 vccd1
+ vccd1 mem_left_track_9.DFFR_6_.Q sky130_fd_sc_hd__dfrtp_1
XFILLER_17_281 vssd1 vssd1 vccd1 vccd1 sky130_fd_sc_hd__fill_2
X_0967_ _0159_ vssd1 vssd1 vccd1 vccd1 _0050_ sky130_fd_sc_hd__inv_2
XFILLER_59_137 vssd1 vssd1 vccd1 vccd1 sky130_ef_sc_hd__decap_12
XFILLER_58_29 vssd1 vssd1 vccd1 vccd1 sky130_ef_sc_hd__decap_12
X_1519_ mux_left_track_1.mux_2level_tapbuf_basis_input4_mem4_2_out _0362_ vssd1 vssd1
+ vccd1 vccd1 mux_left_track_1.mux_2level_tapbuf_basis_input4_mem4_3_out sky130_fd_sc_hd__ebufn_4
X_0898_ net34 vssd1 vssd1 vccd1 vccd1 mux_bottom_track_33.INVTX1_4_.out sky130_fd_sc_hd__inv_2
XFILLER_23_251 vssd1 vssd1 vccd1 vccd1 sky130_fd_sc_hd__decap_4
XFILLER_23_54 vssd1 vssd1 vccd1 vccd1 sky130_fd_sc_hd__fill_2
XFILLER_2_100 vssd1 vssd1 vccd1 vccd1 sky130_fd_sc_hd__decap_8
XFILLER_2_166 vssd1 vssd1 vccd1 vccd1 sky130_fd_sc_hd__decap_4
XFILLER_64_83 vssd1 vssd1 vccd1 vccd1 sky130_fd_sc_hd__fill_1
XFILLER_61_335 vssd1 vssd1 vccd1 vccd1 sky130_fd_sc_hd__fill_1
XFILLER_46_365 vssd1 vssd1 vccd1 vccd1 sky130_ef_sc_hd__decap_12
XFILLER_46_321 vssd1 vssd1 vccd1 vccd1 sky130_ef_sc_hd__decap_12
XFILLER_9_12 vssd1 vssd1 vccd1 vccd1 sky130_fd_sc_hd__decap_4
X_0752_ mem_top_track_16.DFFR_2_.Q vssd1 vssd1 vccd1 vccd1 _0211_ sky130_fd_sc_hd__inv_2
X_0821_ net25 vssd1 vssd1 vccd1 vccd1 mux_bottom_track_1.INVTX1_3_.out sky130_fd_sc_hd__inv_2
XFILLER_43_3 vssd1 vssd1 vccd1 vccd1 sky130_ef_sc_hd__decap_12
X_0683_ mem_right_track_24.DFFR_2_.Q vssd1 vssd1 vccd1 vccd1 _0288_ sky130_fd_sc_hd__inv_2
X_1304_ net73 vssd1 vssd1 vccd1 vccd1 net145 sky130_fd_sc_hd__clkbuf_1
XFILLER_49_181 vssd1 vssd1 vccd1 vccd1 sky130_ef_sc_hd__decap_12
X_1166_ clknet_4_1_0_prog_clk mem_bottom_track_25.DFFR_6_.Q _0088_ vssd1 vssd1 vccd1
+ vccd1 mem_bottom_track_25.DFFR_7_.Q sky130_fd_sc_hd__dfrtp_1
XFILLER_52_357 vssd1 vssd1 vccd1 vccd1 sky130_fd_sc_hd__decap_6
X_1097_ clknet_4_12_0_prog_clk mem_top_track_16.DFFR_3_.Q _0019_ vssd1 vssd1 vccd1
+ vccd1 mem_top_track_16.DFFR_4_.Q sky130_fd_sc_hd__dfrtp_1
XFILLER_20_243 vssd1 vssd1 vccd1 vccd1 sky130_fd_sc_hd__decap_4
XFILLER_47_129 vssd1 vssd1 vccd1 vccd1 sky130_fd_sc_hd__decap_4
XFILLER_43_357 vssd1 vssd1 vccd1 vccd1 sky130_fd_sc_hd__fill_2
XFILLER_28_365 vssd1 vssd1 vccd1 vccd1 sky130_fd_sc_hd__fill_2
XFILLER_50_41 vssd1 vssd1 vccd1 vccd1 sky130_ef_sc_hd__decap_12
XFILLER_34_97 vssd1 vssd1 vccd1 vccd1 sky130_ef_sc_hd__decap_12
XFILLER_34_53 vssd1 vssd1 vccd1 vccd1 sky130_ef_sc_hd__decap_12
XFILLER_7_225 vssd1 vssd1 vccd1 vccd1 sky130_fd_sc_hd__fill_2
XFILLER_7_247 vssd1 vssd1 vccd1 vccd1 sky130_fd_sc_hd__decap_4
XTAP_519 vssd1 vccd1 sky130_fd_sc_hd__tapvpwrvgnd_1
XTAP_508 vssd1 vccd1 sky130_fd_sc_hd__tapvpwrvgnd_1
XFILLER_50_85 vssd1 vssd1 vccd1 vccd1 sky130_fd_sc_hd__fill_2
XFILLER_50_63 vssd1 vssd1 vccd1 vccd1 sky130_ef_sc_hd__decap_12
X_1020_ _0163_ vssd1 vssd1 vccd1 vccd1 _0099_ sky130_fd_sc_hd__inv_2
XFILLER_19_321 vssd1 vssd1 vccd1 vccd1 sky130_fd_sc_hd__fill_1
X_0735_ mem_top_track_24.DFFR_3_.Q vssd1 vssd1 vccd1 vccd1 _0228_ sky130_fd_sc_hd__inv_2
X_0804_ net94 vssd1 vssd1 vccd1 vccd1 mux_top_track_24.INVTX1_0_.out sky130_fd_sc_hd__inv_2
X_1504__183 vssd1 vssd1 vccd1 vccd1 net183 _1504__183/LO sky130_fd_sc_hd__conb_1
XFILLER_57_405 vssd1 vssd1 vccd1 vccd1 sky130_fd_sc_hd__fill_2
X_0666_ mem_bottom_track_1.DFFR_3_.Q vssd1 vssd1 vccd1 vccd1 _0305_ sky130_fd_sc_hd__inv_2
X_0597_ mem_left_track_1.DFFR_3_.Q vssd1 vssd1 vccd1 vccd1 _0366_ sky130_fd_sc_hd__inv_2
XFILLER_52_132 vssd1 vssd1 vccd1 vccd1 sky130_fd_sc_hd__decap_8
XFILLER_25_313 vssd1 vssd1 vccd1 vccd1 sky130_fd_sc_hd__decap_4
X_1218_ clknet_4_10_0_prog_clk mem_bottom_track_33.DFFR_4_.Q _0140_ vssd1 vssd1 vccd1
+ vccd1 mem_bottom_track_33.DFFR_5_.Q sky130_fd_sc_hd__dfrtp_1
X_1149_ clknet_4_15_0_prog_clk mem_bottom_track_1.DFFR_0_.D _0071_ vssd1 vssd1 vccd1
+ vccd1 mem_bottom_track_1.DFFR_0_.Q sky130_fd_sc_hd__dfrtp_4
XFILLER_40_349 vssd1 vssd1 vccd1 vccd1 sky130_ef_sc_hd__decap_12
XFILLER_20_99 vssd1 vssd1 vccd1 vccd1 sky130_fd_sc_hd__decap_4
XFILLER_29_20 vssd1 vssd1 vccd1 vccd1 sky130_ef_sc_hd__decap_12
XFILLER_45_96 vssd1 vssd1 vccd1 vccd1 sky130_fd_sc_hd__decap_4
XFILLER_43_110 vssd1 vssd1 vccd1 vccd1 sky130_fd_sc_hd__fill_2
XFILLER_28_162 vssd1 vssd1 vccd1 vccd1 sky130_fd_sc_hd__decap_4
XFILLER_16_335 vssd1 vssd1 vccd1 vccd1 sky130_fd_sc_hd__decap_6
XFILLER_61_40 vssd1 vssd1 vccd1 vccd1 sky130_ef_sc_hd__decap_12
XANTENNA_6 net105 vssd1 vssd1 vccd1 vccd1 sky130_fd_sc_hd__diode_2
X_0520_ mem_right_track_32.DFFR_1_.Q vssd1 vssd1 vccd1 vccd1 _0443_ sky130_fd_sc_hd__inv_2
XTAP_349 vssd1 vccd1 sky130_fd_sc_hd__tapvpwrvgnd_1
XTAP_338 vssd1 vccd1 sky130_fd_sc_hd__tapvpwrvgnd_1
XTAP_327 vssd1 vccd1 sky130_fd_sc_hd__tapvpwrvgnd_1
XTAP_316 vssd1 vccd1 sky130_fd_sc_hd__tapvpwrvgnd_1
XTAP_305 vssd1 vccd1 sky130_fd_sc_hd__tapvpwrvgnd_1
X_1003_ _0162_ vssd1 vssd1 vccd1 vccd1 _0083_ sky130_fd_sc_hd__inv_2
XFILLER_30_382 vssd1 vssd1 vccd1 vccd1 sky130_ef_sc_hd__decap_12
XFILLER_15_390 vssd1 vssd1 vccd1 vccd1 sky130_fd_sc_hd__fill_2
X_0718_ mem_right_track_0.DFFR_0_.Q vssd1 vssd1 vccd1 vccd1 _0248_ sky130_fd_sc_hd__inv_2
X_0649_ mem_bottom_track_9.DFFR_0_.Q vssd1 vssd1 vccd1 vccd1 _0327_ sky130_fd_sc_hd__inv_2
XFILLER_57_279 vssd1 vssd1 vccd1 vccd1 sky130_fd_sc_hd__fill_1
XFILLER_25_110 vssd1 vssd1 vccd1 vccd1 sky130_fd_sc_hd__fill_2
XFILLER_13_349 vssd1 vssd1 vccd1 vccd1 sky130_fd_sc_hd__decap_4
XFILLER_15_22 vssd1 vssd1 vccd1 vccd1 sky130_fd_sc_hd__decap_4
XFILLER_40_146 vssd1 vssd1 vccd1 vccd1 sky130_fd_sc_hd__decap_6
XFILLER_31_21 vssd1 vssd1 vccd1 vccd1 sky130_ef_sc_hd__decap_12
XFILLER_21_393 vssd1 vssd1 vccd1 vccd1 sky130_ef_sc_hd__decap_12
Xoutput98 net98 vssd1 vssd1 vccd1 vccd1 chanx_left_out[11] sky130_fd_sc_hd__buf_2
XFILLER_0_253 vssd1 vssd1 vccd1 vccd1 sky130_fd_sc_hd__fill_2
XFILLER_0_275 vssd1 vssd1 vccd1 vccd1 sky130_fd_sc_hd__decap_4
XFILLER_31_113 vssd1 vssd1 vccd1 vccd1 sky130_ef_sc_hd__decap_12
X_1621_ net191 _0464_ vssd1 vssd1 vccd1 vccd1 mux_left_track_33.mux_2level_tapbuf_basis_input3_mem3_2_out
+ sky130_fd_sc_hd__ebufn_1
XFILLER_8_331 vssd1 vssd1 vccd1 vccd1 sky130_fd_sc_hd__decap_4
X_1552_ net186 _0395_ vssd1 vssd1 vccd1 vccd1 mux_left_track_17.mux_2level_tapbuf_basis_input4_mem4_3_out
+ sky130_fd_sc_hd__ebufn_4
XFILLER_12_393 vssd1 vssd1 vccd1 vccd1 sky130_fd_sc_hd__decap_8
X_0503_ mem_left_track_33.DFFR_2_.Q vssd1 vssd1 vccd1 vccd1 _0466_ sky130_fd_sc_hd__inv_2
XFILLER_39_268 vssd1 vssd1 vccd1 vccd1 sky130_fd_sc_hd__decap_6
X_1483_ mux_bottom_track_9.INVTX1_8_.out _0326_ vssd1 vssd1 vccd1 vccd1 mux_bottom_track_9.mux_2level_tapbuf_basis_input4_mem4_2_out
+ sky130_fd_sc_hd__ebufn_4
XTAP_168 vssd1 vccd1 sky130_fd_sc_hd__tapvpwrvgnd_1
XTAP_157 vssd1 vccd1 sky130_fd_sc_hd__tapvpwrvgnd_1
XTAP_135 vssd1 vccd1 sky130_fd_sc_hd__tapvpwrvgnd_1
XTAP_146 vssd1 vccd1 sky130_fd_sc_hd__tapvpwrvgnd_1
XTAP_179 vssd1 vccd1 sky130_fd_sc_hd__tapvpwrvgnd_1
XFILLER_22_124 vssd1 vssd1 vccd1 vccd1 sky130_fd_sc_hd__decap_4
XFILLER_7_9 vssd1 vssd1 vccd1 vccd1 sky130_fd_sc_hd__decap_4
XFILLER_26_10 vssd1 vssd1 vccd1 vccd1 sky130_ef_sc_hd__decap_12
XFILLER_53_293 vssd1 vssd1 vccd1 vccd1 sky130_ef_sc_hd__decap_12
XFILLER_42_53 vssd1 vssd1 vccd1 vccd1 sky130_ef_sc_hd__decap_12
XFILLER_13_113 vssd1 vssd1 vccd1 vccd1 sky130_fd_sc_hd__fill_2
XFILLER_36_205 vssd1 vssd1 vccd1 vccd1 sky130_fd_sc_hd__decap_4
XFILLER_32_400 vssd1 vssd1 vccd1 vccd1 sky130_fd_sc_hd__fill_1
X_0983_ _0160_ vssd1 vssd1 vccd1 vccd1 _0065_ sky130_fd_sc_hd__inv_2
X_1604_ mux_left_track_33.INVTX1_5_.out _0447_ vssd1 vssd1 vccd1 vccd1 mux_right_track_32.mux_2level_tapbuf_basis_input3_mem3_1_out
+ sky130_fd_sc_hd__ebufn_2
X_1535_ mux_left_track_9.mux_2level_tapbuf_basis_input4_mem4_2_out _0378_ vssd1 vssd1
+ vccd1 vccd1 mux_left_track_9.mux_2level_tapbuf_basis_input4_mem4_3_out sky130_fd_sc_hd__ebufn_4
XFILLER_8_194 vssd1 vssd1 vccd1 vccd1 sky130_fd_sc_hd__fill_2
X_1397_ mux_left_track_1.INVTX1_8_.out _0240_ vssd1 vssd1 vccd1 vccd1 mux_right_track_0.mux_2level_tapbuf_basis_input4_mem4_1_out
+ sky130_fd_sc_hd__ebufn_4
X_1466_ mux_bottom_track_1.mux_2level_tapbuf_basis_input4_mem4_0_out _0309_ vssd1
+ vssd1 vccd1 vccd1 mux_bottom_track_1.mux_2level_tapbuf_basis_input4_mem4_3_out sky130_fd_sc_hd__ebufn_4
XFILLER_50_274 vssd1 vssd1 vccd1 vccd1 sky130_fd_sc_hd__decap_4
XFILLER_50_241 vssd1 vssd1 vccd1 vccd1 sky130_fd_sc_hd__decap_4
XFILLER_42_208 vssd1 vssd1 vccd1 vccd1 sky130_fd_sc_hd__decap_4
XFILLER_10_138 vssd1 vssd1 vccd1 vccd1 sky130_fd_sc_hd__fill_2
XFILLER_12_12 vssd1 vssd1 vccd1 vccd1 sky130_fd_sc_hd__decap_4
XFILLER_12_45 vssd1 vssd1 vccd1 vccd1 sky130_fd_sc_hd__decap_4
XFILLER_12_89 vssd1 vssd1 vccd1 vccd1 sky130_fd_sc_hd__fill_1
XFILLER_58_363 vssd1 vssd1 vccd1 vccd1 sky130_fd_sc_hd__fill_1
XFILLER_37_20 vssd1 vssd1 vccd1 vccd1 sky130_ef_sc_hd__decap_12
XFILLER_18_205 vssd1 vssd1 vccd1 vccd1 sky130_fd_sc_hd__fill_2
XFILLER_18_238 vssd1 vssd1 vccd1 vccd1 sky130_fd_sc_hd__fill_2
XFILLER_53_85 vssd1 vssd1 vccd1 vccd1 sky130_ef_sc_hd__decap_12
XFILLER_26_293 vssd1 vssd1 vccd1 vccd1 sky130_fd_sc_hd__decap_4
XFILLER_52_8 vssd1 vssd1 vccd1 vccd1 sky130_ef_sc_hd__decap_12
X_1320_ net57 vssd1 vssd1 vccd1 vccd1 net167 sky130_fd_sc_hd__clkbuf_1
XFILLER_5_197 vssd1 vssd1 vccd1 vccd1 sky130_fd_sc_hd__fill_2
XFILLER_64_322 vssd1 vssd1 vccd1 vccd1 sky130_ef_sc_hd__decap_12
XFILLER_49_385 vssd1 vssd1 vccd1 vccd1 sky130_fd_sc_hd__decap_6
X_1251_ net32 vssd1 vssd1 vccd1 vccd1 net104 sky130_fd_sc_hd__clkbuf_1
X_1182_ clknet_4_12_0_prog_clk mem_left_track_9.DFFR_6_.Q _0104_ vssd1 vssd1 vccd1
+ vccd1 mem_left_track_17.DFFR_0_.D sky130_fd_sc_hd__dfrtp_1
XFILLER_32_296 vssd1 vssd1 vccd1 vccd1 sky130_fd_sc_hd__decap_4
X_0966_ _0153_ vssd1 vssd1 vccd1 vccd1 _0159_ sky130_fd_sc_hd__buf_4
X_0897_ net18 vssd1 vssd1 vccd1 vccd1 mux_bottom_track_33.INVTX1_5_.out sky130_fd_sc_hd__inv_2