* NGSPICE file created from sb_4__4_.ext - technology: sky130A

* Black-box entry subcircuit for sky130_fd_sc_hd__decap_3 abstract view
.subckt sky130_fd_sc_hd__decap_3 VGND VNB VPB VPWR
.ends

* Black-box entry subcircuit for sky130_fd_sc_hd__decap_6 abstract view
.subckt sky130_fd_sc_hd__decap_6 VGND VNB VPB VPWR
.ends

* Black-box entry subcircuit for sky130_fd_sc_hd__tapvpwrvgnd_1 abstract view
.subckt sky130_fd_sc_hd__tapvpwrvgnd_1 VGND VPWR
.ends

* Black-box entry subcircuit for sky130_fd_sc_hd__fill_2 abstract view
.subckt sky130_fd_sc_hd__fill_2 VGND VNB VPB VPWR
.ends

* Black-box entry subcircuit for sky130_fd_sc_hd__decap_4 abstract view
.subckt sky130_fd_sc_hd__decap_4 VGND VNB VPB VPWR
.ends

* Black-box entry subcircuit for sky130_fd_sc_hd__decap_8 abstract view
.subckt sky130_fd_sc_hd__decap_8 VGND VNB VPB VPWR
.ends

* Black-box entry subcircuit for sky130_fd_sc_hd__fill_1 abstract view
.subckt sky130_fd_sc_hd__fill_1 VGND VNB VPB VPWR
.ends

* Black-box entry subcircuit for sky130_fd_sc_hd__clkbuf_1 abstract view
.subckt sky130_fd_sc_hd__clkbuf_1 A VGND VNB VPB VPWR X
.ends

* Black-box entry subcircuit for sky130_fd_sc_hd__inv_2 abstract view
.subckt sky130_fd_sc_hd__inv_2 A VGND VNB VPB VPWR Y
.ends

* Black-box entry subcircuit for sky130_fd_sc_hd__ebufn_2 abstract view
.subckt sky130_fd_sc_hd__ebufn_2 A TE_B VGND VNB VPB VPWR Z
.ends

* Black-box entry subcircuit for sky130_fd_sc_hd__dfrtp_4 abstract view
.subckt sky130_fd_sc_hd__dfrtp_4 CLK D RESET_B VGND VNB VPB VPWR Q
.ends

* Black-box entry subcircuit for sky130_ef_sc_hd__decap_12 abstract view
.subckt sky130_ef_sc_hd__decap_12 VGND VNB VPB VPWR
.ends

* Black-box entry subcircuit for sky130_fd_sc_hd__ebufn_1 abstract view
.subckt sky130_fd_sc_hd__ebufn_1 A TE_B VGND VNB VPB VPWR Z
.ends

* Black-box entry subcircuit for sky130_fd_sc_hd__conb_1 abstract view
.subckt sky130_fd_sc_hd__conb_1 VGND VNB VPB VPWR HI LO
.ends

* Black-box entry subcircuit for sky130_fd_sc_hd__clkinv_2 abstract view
.subckt sky130_fd_sc_hd__clkinv_2 A VGND VNB VPB VPWR Y
.ends

* Black-box entry subcircuit for sky130_fd_sc_hd__buf_2 abstract view
.subckt sky130_fd_sc_hd__buf_2 A VGND VNB VPB VPWR X
.ends

* Black-box entry subcircuit for sky130_fd_sc_hd__dfrtp_2 abstract view
.subckt sky130_fd_sc_hd__dfrtp_2 CLK D RESET_B VGND VNB VPB VPWR Q
.ends

* Black-box entry subcircuit for sky130_fd_sc_hd__dfrtp_1 abstract view
.subckt sky130_fd_sc_hd__dfrtp_1 CLK D RESET_B VGND VNB VPB VPWR Q
.ends

* Black-box entry subcircuit for sky130_fd_sc_hd__buf_4 abstract view
.subckt sky130_fd_sc_hd__buf_4 A VGND VNB VPB VPWR X
.ends

* Black-box entry subcircuit for sky130_fd_sc_hd__clkbuf_2 abstract view
.subckt sky130_fd_sc_hd__clkbuf_2 A VGND VNB VPB VPWR X
.ends

* Black-box entry subcircuit for sky130_fd_sc_hd__ebufn_4 abstract view
.subckt sky130_fd_sc_hd__ebufn_4 A TE_B VGND VNB VPB VPWR Z
.ends

* Black-box entry subcircuit for sky130_fd_sc_hd__diode_2 abstract view
.subckt sky130_fd_sc_hd__diode_2 DIODE VGND VNB VPB VPWR
.ends

.subckt sb_4__4_ bottom_left_grid_right_width_0_height_0_subtile_0__pin_O_1_ bottom_left_grid_right_width_0_height_0_subtile_0__pin_O_5_
+ bottom_right_grid_left_width_0_height_0_subtile_0__pin_inpad_0_ bottom_right_grid_left_width_0_height_0_subtile_1__pin_inpad_0_
+ bottom_right_grid_left_width_0_height_0_subtile_2__pin_inpad_0_ bottom_right_grid_left_width_0_height_0_subtile_3__pin_inpad_0_
+ bottom_right_grid_left_width_0_height_0_subtile_4__pin_inpad_0_ bottom_right_grid_left_width_0_height_0_subtile_5__pin_inpad_0_
+ bottom_right_grid_left_width_0_height_0_subtile_6__pin_inpad_0_ bottom_right_grid_left_width_0_height_0_subtile_7__pin_inpad_0_
+ ccff_head ccff_tail chanx_left_in[0] chanx_left_in[10] chanx_left_in[11] chanx_left_in[12]
+ chanx_left_in[13] chanx_left_in[14] chanx_left_in[15] chanx_left_in[16] chanx_left_in[17]
+ chanx_left_in[18] chanx_left_in[1] chanx_left_in[2] chanx_left_in[3] chanx_left_in[4]
+ chanx_left_in[5] chanx_left_in[6] chanx_left_in[7] chanx_left_in[8] chanx_left_in[9]
+ chanx_left_out[0] chanx_left_out[10] chanx_left_out[11] chanx_left_out[12] chanx_left_out[13]
+ chanx_left_out[14] chanx_left_out[15] chanx_left_out[16] chanx_left_out[17] chanx_left_out[18]
+ chanx_left_out[1] chanx_left_out[2] chanx_left_out[3] chanx_left_out[4] chanx_left_out[5]
+ chanx_left_out[6] chanx_left_out[7] chanx_left_out[8] chanx_left_out[9] chany_bottom_in[0]
+ chany_bottom_in[10] chany_bottom_in[11] chany_bottom_in[12] chany_bottom_in[13]
+ chany_bottom_in[14] chany_bottom_in[15] chany_bottom_in[16] chany_bottom_in[17]
+ chany_bottom_in[18] chany_bottom_in[1] chany_bottom_in[2] chany_bottom_in[3] chany_bottom_in[4]
+ chany_bottom_in[5] chany_bottom_in[6] chany_bottom_in[7] chany_bottom_in[8] chany_bottom_in[9]
+ chany_bottom_out[0] chany_bottom_out[10] chany_bottom_out[11] chany_bottom_out[12]
+ chany_bottom_out[13] chany_bottom_out[14] chany_bottom_out[15] chany_bottom_out[16]
+ chany_bottom_out[17] chany_bottom_out[18] chany_bottom_out[1] chany_bottom_out[2]
+ chany_bottom_out[3] chany_bottom_out[4] chany_bottom_out[5] chany_bottom_out[6]
+ chany_bottom_out[7] chany_bottom_out[8] chany_bottom_out[9] left_bottom_grid_top_width_0_height_0_subtile_0__pin_O_0_
+ left_bottom_grid_top_width_0_height_0_subtile_0__pin_O_4_ left_top_grid_bottom_width_0_height_0_subtile_0__pin_inpad_0_
+ left_top_grid_bottom_width_0_height_0_subtile_1__pin_inpad_0_ left_top_grid_bottom_width_0_height_0_subtile_2__pin_inpad_0_
+ left_top_grid_bottom_width_0_height_0_subtile_3__pin_inpad_0_ left_top_grid_bottom_width_0_height_0_subtile_4__pin_inpad_0_
+ left_top_grid_bottom_width_0_height_0_subtile_5__pin_inpad_0_ left_top_grid_bottom_width_0_height_0_subtile_6__pin_inpad_0_
+ left_top_grid_bottom_width_0_height_0_subtile_7__pin_inpad_0_ pReset prog_clk vccd1
+ vssd1
XFILLER_39_277 vssd1 vssd1 vccd1 vccd1 sky130_fd_sc_hd__decap_3
XFILLER_39_233 vssd1 vssd1 vccd1 vccd1 sky130_fd_sc_hd__decap_6
XTAP_177 vssd1 vccd1 sky130_fd_sc_hd__tapvpwrvgnd_1
XTAP_188 vssd1 vccd1 sky130_fd_sc_hd__tapvpwrvgnd_1
XTAP_199 vssd1 vccd1 sky130_fd_sc_hd__tapvpwrvgnd_1
XFILLER_45_225 vssd1 vssd1 vccd1 vccd1 sky130_fd_sc_hd__fill_2
XFILLER_45_214 vssd1 vssd1 vccd1 vccd1 sky130_fd_sc_hd__decap_4
XFILLER_26_85 vssd1 vssd1 vccd1 vccd1 sky130_fd_sc_hd__decap_8
XFILLER_26_63 vssd1 vssd1 vccd1 vccd1 sky130_fd_sc_hd__fill_1
XFILLER_26_41 vssd1 vssd1 vccd1 vccd1 sky130_fd_sc_hd__decap_6
XFILLER_9_137 vssd1 vssd1 vccd1 vccd1 sky130_fd_sc_hd__decap_6
XFILLER_36_258 vssd1 vssd1 vccd1 vccd1 sky130_fd_sc_hd__decap_4
XFILLER_8_170 vssd1 vssd1 vccd1 vccd1 sky130_fd_sc_hd__decap_4
X_0419_ _0076_ vssd1 vssd1 vccd1 vccd1 _0375_ sky130_fd_sc_hd__clkbuf_1
XFILLER_42_217 vssd1 vssd1 vccd1 vccd1 sky130_fd_sc_hd__fill_1
XFILLER_42_206 vssd1 vssd1 vccd1 vccd1 sky130_fd_sc_hd__decap_4
XFILLER_27_225 vssd1 vssd1 vccd1 vccd1 sky130_fd_sc_hd__decap_8
XFILLER_6_118 vssd1 vssd1 vccd1 vccd1 sky130_fd_sc_hd__decap_8
XFILLER_10_147 vssd1 vssd1 vccd1 vccd1 sky130_fd_sc_hd__fill_1
XFILLER_12_65 vssd1 vssd1 vccd1 vccd1 sky130_fd_sc_hd__decap_6
XFILLER_37_51 vssd1 vssd1 vccd1 vccd1 sky130_fd_sc_hd__decap_4
XFILLER_18_225 vssd1 vssd1 vccd1 vccd1 sky130_fd_sc_hd__decap_4
XFILLER_18_258 vssd1 vssd1 vccd1 vccd1 sky130_fd_sc_hd__decap_4
XFILLER_41_272 vssd1 vssd1 vccd1 vccd1 sky130_fd_sc_hd__decap_8
X_0770_ mux_bottom_track_23.mux_2level_tapbuf_basis_input2_mem1_1_out vssd1 vssd1
+ vccd1 vccd1 mux_bottom_track_23.out sky130_fd_sc_hd__inv_2
XFILLER_5_173 vssd1 vssd1 vccd1 vccd1 sky130_fd_sc_hd__fill_1
XFILLER_5_184 vssd1 vssd1 vccd1 vccd1 sky130_fd_sc_hd__decap_4
X_1184_ mux_bottom_track_25.mux_2level_tapbuf_basis_input2_mem1_0_out _0324_ vssd1
+ vssd1 vccd1 vccd1 mux_bottom_track_25.mux_2level_tapbuf_basis_input2_mem1_1_out
+ sky130_fd_sc_hd__ebufn_2
X_0899_ prog_clk mem_bottom_track_7.DFFR_1_.Q _0064_ vssd1 vssd1 vccd1 vccd1 mem_bottom_track_9.DFFR_0_.Q
+ sky130_fd_sc_hd__dfrtp_4
XFILLER_30_209 vssd1 vssd1 vccd1 vccd1 sky130_fd_sc_hd__decap_8
XFILLER_15_217 vssd1 vssd1 vccd1 vccd1 sky130_fd_sc_hd__fill_2
XFILLER_2_187 vssd1 vssd1 vccd1 vccd1 sky130_fd_sc_hd__decap_4
XFILLER_0_57 vssd1 vssd1 vccd1 vccd1 sky130_fd_sc_hd__fill_2
X_0822_ _0176_ vssd1 vssd1 vccd1 vccd1 _0068_ sky130_fd_sc_hd__inv_2
XFILLER_9_33 vssd1 vssd1 vccd1 vccd1 sky130_ef_sc_hd__decap_12
XFILLER_14_250 vssd1 vssd1 vccd1 vccd1 sky130_fd_sc_hd__fill_2
X_0684_ _0165_ vssd1 vssd1 vccd1 vccd1 _0201_ sky130_fd_sc_hd__clkbuf_1
X_0753_ net44 vssd1 vssd1 vccd1 vccd1 mux_left_track_11.INVTX1_0_.out sky130_fd_sc_hd__inv_2
X_1236_ mux_left_track_35.mux_2level_tapbuf_basis_input2_mem1_0_out _0376_ vssd1 vssd1
+ vccd1 vccd1 mux_left_track_35.mux_2level_tapbuf_basis_input2_mem1_1_out sky130_fd_sc_hd__ebufn_2
X_1098_ mux_bottom_track_17.INVTX1_1_.out _0238_ vssd1 vssd1 vccd1 vccd1 mux_bottom_track_19.mux_2level_tapbuf_basis_input2_mem1_0_out
+ sky130_fd_sc_hd__ebufn_1
X_1167_ mux_left_track_19.INVTX1_0_.out _0307_ vssd1 vssd1 vccd1 vccd1 mux_left_track_19.mux_2level_tapbuf_basis_input2_mem1_0_out
+ sky130_fd_sc_hd__ebufn_1
XFILLER_12_209 vssd1 vssd1 vccd1 vccd1 sky130_fd_sc_hd__decap_6
XFILLER_20_220 vssd1 vssd1 vccd1 vccd1 sky130_fd_sc_hd__decap_4
XFILLER_20_253 vssd1 vssd1 vccd1 vccd1 sky130_fd_sc_hd__fill_2
XFILLER_20_297 vssd1 vssd1 vccd1 vccd1 sky130_fd_sc_hd__fill_2
X_1178__123 vssd1 vssd1 vccd1 vccd1 net123 _1178__123/LO sky130_fd_sc_hd__conb_1
XFILLER_34_85 vssd1 vssd1 vccd1 vccd1 sky130_fd_sc_hd__decap_6
XFILLER_34_41 vssd1 vssd1 vccd1 vccd1 sky130_ef_sc_hd__decap_12
X_1226__135 vssd1 vssd1 vccd1 vccd1 net135 _1226__135/LO sky130_fd_sc_hd__conb_1
XFILLER_46_183 vssd1 vssd1 vccd1 vccd1 sky130_fd_sc_hd__fill_2
XFILLER_46_161 vssd1 vssd1 vccd1 vccd1 sky130_fd_sc_hd__decap_6
X_1021_ mux_left_track_3.out vssd1 vssd1 vccd1 vccd1 net72 sky130_fd_sc_hd__clkbuf_1
X_0805_ net38 vssd1 vssd1 vccd1 vccd1 mux_left_track_35.INVTX1_0_.out sky130_fd_sc_hd__inv_2
X_0736_ net13 vssd1 vssd1 vccd1 vccd1 mux_bottom_track_19.INVTX1_2_.out sky130_fd_sc_hd__clkinv_2
X_0598_ _0136_ vssd1 vssd1 vccd1 vccd1 _0256_ sky130_fd_sc_hd__clkbuf_1
X_0667_ mem_bottom_track_11.DFFR_0_.D vssd1 vssd1 vccd1 vccd1 _0209_ sky130_fd_sc_hd__inv_2
XFILLER_29_139 vssd1 vssd1 vccd1 vccd1 sky130_fd_sc_hd__decap_4
X_1219_ mux_left_track_27.INVTX1_1_.out _0359_ vssd1 vssd1 vccd1 vccd1 mux_left_track_27.mux_2level_tapbuf_basis_input2_mem1_0_out
+ sky130_fd_sc_hd__ebufn_2
XFILLER_29_96 vssd1 vssd1 vccd1 vccd1 sky130_fd_sc_hd__decap_4
XFILLER_29_85 vssd1 vssd1 vccd1 vccd1 sky130_fd_sc_hd__fill_1
XFILLER_43_197 vssd1 vssd1 vccd1 vccd1 sky130_fd_sc_hd__decap_4
XTAP_337 vssd1 vccd1 sky130_fd_sc_hd__tapvpwrvgnd_1
XTAP_326 vssd1 vccd1 sky130_fd_sc_hd__tapvpwrvgnd_1
X_0452_ mem_left_track_23.DFFR_1_.Q vssd1 vssd1 vccd1 vccd1 _0352_ sky130_fd_sc_hd__inv_2
XTAP_315 vssd1 vccd1 sky130_fd_sc_hd__tapvpwrvgnd_1
XTAP_304 vssd1 vccd1 sky130_fd_sc_hd__tapvpwrvgnd_1
XFILLER_3_293 vssd1 vssd1 vccd1 vccd1 sky130_fd_sc_hd__decap_6
X_0521_ mem_left_track_37.DFFR_0_.Q vssd1 vssd1 vccd1 vccd1 _0111_ sky130_fd_sc_hd__clkbuf_1
XFILLER_26_109 vssd1 vssd1 vccd1 vccd1 sky130_fd_sc_hd__fill_2
XFILLER_13_3 vssd1 vssd1 vccd1 vccd1 sky130_ef_sc_hd__decap_12
XFILLER_34_197 vssd1 vssd1 vccd1 vccd1 sky130_fd_sc_hd__fill_2
XFILLER_34_164 vssd1 vssd1 vccd1 vccd1 sky130_fd_sc_hd__decap_4
X_1004_ mux_left_track_37.out vssd1 vssd1 vccd1 vccd1 net71 sky130_fd_sc_hd__clkbuf_1
XFILLER_19_194 vssd1 vssd1 vccd1 vccd1 sky130_fd_sc_hd__decap_4
X_0719_ net25 vssd1 vssd1 vccd1 vccd1 mux_bottom_track_7.INVTX1_2_.out sky130_fd_sc_hd__inv_2
XFILLER_1_208 vssd1 vssd1 vccd1 vccd1 sky130_fd_sc_hd__decap_4
XFILLER_25_131 vssd1 vssd1 vccd1 vccd1 sky130_fd_sc_hd__decap_4
XFILLER_40_189 vssd1 vssd1 vccd1 vccd1 sky130_fd_sc_hd__fill_1
XFILLER_40_134 vssd1 vssd1 vccd1 vccd1 sky130_fd_sc_hd__fill_1
XFILLER_40_123 vssd1 vssd1 vccd1 vccd1 sky130_fd_sc_hd__decap_4
XFILLER_25_186 vssd1 vssd1 vccd1 vccd1 sky130_fd_sc_hd__decap_4
XFILLER_15_76 vssd1 vssd1 vccd1 vccd1 sky130_fd_sc_hd__fill_2
Xoutput64 net64 vssd1 vssd1 vccd1 vccd1 chanx_left_out[11] sky130_fd_sc_hd__buf_2
Xoutput75 net75 vssd1 vssd1 vccd1 vccd1 chanx_left_out[4] sky130_fd_sc_hd__buf_2
XFILLER_0_230 vssd1 vssd1 vccd1 vccd1 sky130_fd_sc_hd__decap_4
Xoutput86 net86 vssd1 vssd1 vccd1 vccd1 chany_bottom_out[14] sky130_fd_sc_hd__buf_2
Xoutput97 net97 vssd1 vssd1 vccd1 vccd1 chany_bottom_out[7] sky130_fd_sc_hd__buf_2
XFILLER_31_145 vssd1 vssd1 vccd1 vccd1 sky130_fd_sc_hd__decap_4
XFILLER_16_175 vssd1 vssd1 vccd1 vccd1 sky130_fd_sc_hd__decap_4
XFILLER_16_197 vssd1 vssd1 vccd1 vccd1 sky130_fd_sc_hd__fill_2
X_0435_ mem_left_track_29.DFFR_0_.Q vssd1 vssd1 vccd1 vccd1 _0365_ sky130_fd_sc_hd__inv_2
XFILLER_39_223 vssd1 vssd1 vccd1 vccd1 sky130_fd_sc_hd__fill_1
X_0504_ mem_bottom_track_23.DFFR_0_.Q vssd1 vssd1 vccd1 vccd1 _0105_ sky130_fd_sc_hd__clkbuf_1
XTAP_123 vssd1 vccd1 sky130_fd_sc_hd__tapvpwrvgnd_1
XTAP_112 vssd1 vccd1 sky130_fd_sc_hd__tapvpwrvgnd_1
XTAP_101 vssd1 vccd1 sky130_fd_sc_hd__tapvpwrvgnd_1
XTAP_134 vssd1 vccd1 sky130_fd_sc_hd__tapvpwrvgnd_1
XTAP_145 vssd1 vccd1 sky130_fd_sc_hd__tapvpwrvgnd_1
XTAP_156 vssd1 vccd1 sky130_fd_sc_hd__tapvpwrvgnd_1
XTAP_167 vssd1 vccd1 sky130_fd_sc_hd__tapvpwrvgnd_1
XTAP_178 vssd1 vccd1 sky130_fd_sc_hd__tapvpwrvgnd_1
XTAP_189 vssd1 vccd1 sky130_fd_sc_hd__tapvpwrvgnd_1
XFILLER_39_256 vssd1 vssd1 vccd1 vccd1 sky130_fd_sc_hd__decap_4
XFILLER_26_75 vssd1 vssd1 vccd1 vccd1 sky130_fd_sc_hd__decap_4
XFILLER_13_123 vssd1 vssd1 vccd1 vccd1 sky130_fd_sc_hd__decap_6
XFILLER_42_85 vssd1 vssd1 vccd1 vccd1 sky130_ef_sc_hd__decap_12
XFILLER_42_41 vssd1 vssd1 vccd1 vccd1 sky130_ef_sc_hd__decap_12
XFILLER_3_57 vssd1 vssd1 vccd1 vccd1 sky130_ef_sc_hd__decap_12
XFILLER_44_292 vssd1 vssd1 vccd1 vccd1 sky130_fd_sc_hd__fill_1
XFILLER_44_281 vssd1 vssd1 vccd1 vccd1 sky130_fd_sc_hd__decap_4
XFILLER_44_270 vssd1 vssd1 vccd1 vccd1 sky130_fd_sc_hd__fill_1
XFILLER_27_204 vssd1 vssd1 vccd1 vccd1 sky130_fd_sc_hd__decap_4
X_0418_ mem_left_track_35.DFFR_0_.Q vssd1 vssd1 vccd1 vccd1 _0076_ sky130_fd_sc_hd__clkbuf_1
XFILLER_35_292 vssd1 vssd1 vccd1 vccd1 sky130_fd_sc_hd__fill_1
XFILLER_35_281 vssd1 vssd1 vccd1 vccd1 sky130_fd_sc_hd__fill_2
XFILLER_10_115 vssd1 vssd1 vccd1 vccd1 sky130_fd_sc_hd__fill_1
XFILLER_10_126 vssd1 vssd1 vccd1 vccd1 sky130_fd_sc_hd__decap_8
XFILLER_41_295 vssd1 vssd1 vccd1 vccd1 sky130_fd_sc_hd__decap_4
XFILLER_5_152 vssd1 vssd1 vccd1 vccd1 sky130_fd_sc_hd__decap_4
X_1183_ mux_bottom_track_25.INVTX1_1_.out _0323_ vssd1 vssd1 vccd1 vccd1 mux_bottom_track_25.mux_2level_tapbuf_basis_input2_mem1_0_out
+ sky130_fd_sc_hd__ebufn_1
XFILLER_17_281 vssd1 vssd1 vccd1 vccd1 sky130_ef_sc_hd__decap_12
XFILLER_32_251 vssd1 vssd1 vccd1 vccd1 sky130_fd_sc_hd__fill_1
X_0898_ prog_clk mem_bottom_track_9.DFFR_0_.Q _0063_ vssd1 vssd1 vccd1 vccd1 mem_bottom_track_11.DFFR_0_.D
+ sky130_fd_sc_hd__dfrtp_2
XFILLER_23_251 vssd1 vssd1 vccd1 vccd1 sky130_fd_sc_hd__decap_4
XFILLER_23_295 vssd1 vssd1 vccd1 vccd1 sky130_fd_sc_hd__decap_4
XFILLER_2_155 vssd1 vssd1 vccd1 vccd1 sky130_fd_sc_hd__fill_1
X_0752_ net57 vssd1 vssd1 vccd1 vccd1 mux_left_track_11.INVTX1_1_.out sky130_fd_sc_hd__inv_2
XFILLER_9_45 vssd1 vssd1 vccd1 vccd1 sky130_fd_sc_hd__decap_8
X_0821_ _0176_ vssd1 vssd1 vccd1 vccd1 _0067_ sky130_fd_sc_hd__inv_2
XFILLER_43_3 vssd1 vssd1 vccd1 vccd1 sky130_ef_sc_hd__decap_12
X_0683_ mem_bottom_track_7.DFFR_0_.Q vssd1 vssd1 vccd1 vccd1 _0165_ sky130_fd_sc_hd__clkbuf_1
X_1235_ mux_left_track_15.INVTX1_2_.out _0375_ vssd1 vssd1 vccd1 vccd1 mux_left_track_35.mux_2level_tapbuf_basis_input2_mem1_0_out
+ sky130_fd_sc_hd__ebufn_1
X_1166_ mux_left_track_17.INVTX1_2_.out _0306_ vssd1 vssd1 vccd1 vccd1 mux_left_track_19.mux_2level_tapbuf_basis_input2_mem1_1_out
+ sky130_fd_sc_hd__ebufn_1
X_1097_ net109 _0237_ vssd1 vssd1 vccd1 vccd1 mux_bottom_track_19.mux_2level_tapbuf_basis_input2_mem1_1_out
+ sky130_fd_sc_hd__ebufn_1
XFILLER_34_20 vssd1 vssd1 vccd1 vccd1 sky130_fd_sc_hd__decap_8
XFILLER_18_98 vssd1 vssd1 vccd1 vccd1 sky130_fd_sc_hd__decap_4
XFILLER_34_53 vssd1 vssd1 vccd1 vccd1 sky130_fd_sc_hd__fill_1
XFILLER_7_225 vssd1 vssd1 vccd1 vccd1 sky130_fd_sc_hd__fill_2
XFILLER_11_254 vssd1 vssd1 vccd1 vccd1 sky130_fd_sc_hd__fill_1
X_1020_ mux_left_track_5.out vssd1 vssd1 vccd1 vccd1 net73 sky130_fd_sc_hd__clkbuf_1
XFILLER_38_107 vssd1 vssd1 vccd1 vccd1 sky130_fd_sc_hd__decap_4
XFILLER_22_8 vssd1 vssd1 vccd1 vccd1 sky130_ef_sc_hd__decap_12
XFILLER_46_195 vssd1 vssd1 vccd1 vccd1 sky130_fd_sc_hd__fill_1
X_0735_ mux_bottom_track_19.mux_2level_tapbuf_basis_input2_mem1_2_out vssd1 vssd1
+ vccd1 vccd1 mux_bottom_track_19.out sky130_fd_sc_hd__inv_2
X_0804_ mux_left_track_35.mux_2level_tapbuf_basis_input2_mem1_1_out vssd1 vssd1 vccd1
+ vccd1 mux_left_track_35.out sky130_fd_sc_hd__inv_2
X_0666_ _0159_ vssd1 vssd1 vccd1 vccd1 _0213_ sky130_fd_sc_hd__clkbuf_1
X_0597_ mem_left_track_3.DFFR_0_.Q vssd1 vssd1 vccd1 vccd1 _0136_ sky130_fd_sc_hd__clkbuf_1
XFILLER_29_129 vssd1 vssd1 vccd1 vccd1 sky130_fd_sc_hd__decap_6
X_1218_ net133 _0358_ vssd1 vssd1 vccd1 vccd1 mux_left_track_27.mux_2level_tapbuf_basis_input2_mem1_1_out
+ sky130_fd_sc_hd__ebufn_2
X_1149_ mux_left_track_13.INVTX1_0_.out _0289_ vssd1 vssd1 vccd1 vccd1 mux_left_track_13.mux_2level_tapbuf_basis_input2_mem1_0_out
+ sky130_fd_sc_hd__ebufn_1
XFILLER_43_176 vssd1 vssd1 vccd1 vccd1 sky130_fd_sc_hd__decap_6
XFILLER_43_154 vssd1 vssd1 vccd1 vccd1 sky130_fd_sc_hd__decap_4
XTAP_338 vssd1 vccd1 sky130_fd_sc_hd__tapvpwrvgnd_1
XTAP_327 vssd1 vccd1 sky130_fd_sc_hd__tapvpwrvgnd_1
X_0451_ _0087_ vssd1 vssd1 vccd1 vccd1 _0354_ sky130_fd_sc_hd__clkbuf_1
XTAP_316 vssd1 vccd1 sky130_fd_sc_hd__tapvpwrvgnd_1
XTAP_305 vssd1 vccd1 sky130_fd_sc_hd__tapvpwrvgnd_1
X_0520_ mem_left_track_37.DFFR_0_.Q vssd1 vssd1 vccd1 vccd1 _0312_ sky130_fd_sc_hd__inv_2
XFILLER_34_154 vssd1 vssd1 vccd1 vccd1 sky130_fd_sc_hd__decap_6
X_0718_ mux_bottom_track_7.mux_2level_tapbuf_basis_input2_mem1_2_out vssd1 vssd1 vccd1
+ vccd1 mux_bottom_track_7.out sky130_fd_sc_hd__inv_2
X_0649_ mem_bottom_track_13.DFFR_1_.Q vssd1 vssd1 vccd1 vccd1 _0221_ sky130_fd_sc_hd__inv_2
XFILLER_15_55 vssd1 vssd1 vccd1 vccd1 sky130_fd_sc_hd__fill_1
Xoutput87 net87 vssd1 vssd1 vccd1 vccd1 chany_bottom_out[15] sky130_fd_sc_hd__buf_2
Xoutput65 net65 vssd1 vssd1 vccd1 vccd1 chanx_left_out[12] sky130_fd_sc_hd__buf_2
Xoutput76 net76 vssd1 vssd1 vccd1 vccd1 chanx_left_out[5] sky130_fd_sc_hd__buf_2
Xoutput98 net98 vssd1 vssd1 vccd1 vccd1 chany_bottom_out[8] sky130_fd_sc_hd__buf_2
XFILLER_0_253 vssd1 vssd1 vccd1 vccd1 sky130_fd_sc_hd__fill_2
XFILLER_0_220 vssd1 vssd1 vccd1 vccd1 sky130_fd_sc_hd__decap_4
XFILLER_0_286 vssd1 vssd1 vccd1 vccd1 sky130_fd_sc_hd__decap_4
XFILLER_31_113 vssd1 vssd1 vccd1 vccd1 sky130_fd_sc_hd__decap_4
X_0434_ mem_left_track_29.DFFR_1_.Q vssd1 vssd1 vccd1 vccd1 _0364_ sky130_fd_sc_hd__inv_2
X_0503_ mem_bottom_track_23.DFFR_0_.Q vssd1 vssd1 vccd1 vccd1 _0321_ sky130_fd_sc_hd__inv_2
XTAP_124 vssd1 vccd1 sky130_fd_sc_hd__tapvpwrvgnd_1
XTAP_113 vssd1 vccd1 sky130_fd_sc_hd__tapvpwrvgnd_1
XTAP_102 vssd1 vccd1 sky130_fd_sc_hd__tapvpwrvgnd_1
XTAP_135 vssd1 vccd1 sky130_fd_sc_hd__tapvpwrvgnd_1
XTAP_146 vssd1 vccd1 sky130_fd_sc_hd__tapvpwrvgnd_1
XTAP_157 vssd1 vccd1 sky130_fd_sc_hd__tapvpwrvgnd_1
XTAP_168 vssd1 vccd1 sky130_fd_sc_hd__tapvpwrvgnd_1
XTAP_179 vssd1 vccd1 sky130_fd_sc_hd__tapvpwrvgnd_1
XFILLER_22_102 vssd1 vssd1 vccd1 vccd1 sky130_fd_sc_hd__decap_4
XFILLER_30_190 vssd1 vssd1 vccd1 vccd1 sky130_fd_sc_hd__decap_6
XFILLER_7_9 vssd1 vssd1 vccd1 vccd1 sky130_ef_sc_hd__decap_12
XFILLER_45_249 vssd1 vssd1 vccd1 vccd1 sky130_fd_sc_hd__decap_4
XFILLER_42_53 vssd1 vssd1 vccd1 vccd1 sky130_ef_sc_hd__decap_12
XFILLER_13_113 vssd1 vssd1 vccd1 vccd1 sky130_fd_sc_hd__decap_6
XFILLER_13_146 vssd1 vssd1 vccd1 vccd1 sky130_fd_sc_hd__decap_4
XFILLER_13_179 vssd1 vssd1 vccd1 vccd1 sky130_fd_sc_hd__decap_4
XFILLER_42_97 vssd1 vssd1 vccd1 vccd1 sky130_fd_sc_hd__decap_3
XFILLER_3_69 vssd1 vssd1 vccd1 vccd1 sky130_fd_sc_hd__fill_1
X_0417_ mem_left_track_35.DFFR_0_.Q vssd1 vssd1 vccd1 vccd1 _0377_ sky130_fd_sc_hd__inv_2
XFILLER_10_138 vssd1 vssd1 vccd1 vccd1 sky130_fd_sc_hd__fill_2
XFILLER_41_252 vssd1 vssd1 vccd1 vccd1 sky130_fd_sc_hd__decap_8
XFILLER_5_131 vssd1 vssd1 vccd1 vccd1 sky130_fd_sc_hd__decap_4
X_1182_ net124 _0322_ vssd1 vssd1 vccd1 vccd1 mux_bottom_track_25.mux_2level_tapbuf_basis_input2_mem1_1_out
+ sky130_fd_sc_hd__ebufn_2
XFILLER_24_219 vssd1 vssd1 vccd1 vccd1 sky130_fd_sc_hd__decap_4
XFILLER_17_293 vssd1 vssd1 vccd1 vccd1 sky130_fd_sc_hd__decap_6
X_0897_ prog_clk mem_bottom_track_5.DFFR_1_.Q _0062_ vssd1 vssd1 vccd1 vccd1 mem_bottom_track_7.DFFR_0_.Q
+ sky130_fd_sc_hd__dfrtp_4
XFILLER_4_90 vssd1 vssd1 vccd1 vccd1 sky130_fd_sc_hd__decap_8
XFILLER_23_55 vssd1 vssd1 vccd1 vccd1 sky130_fd_sc_hd__fill_1
XFILLER_23_88 vssd1 vssd1 vccd1 vccd1 sky130_fd_sc_hd__decap_4
XFILLER_3_3 vssd1 vssd1 vccd1 vccd1 sky130_ef_sc_hd__decap_12
XFILLER_0_26 vssd1 vssd1 vccd1 vccd1 sky130_fd_sc_hd__fill_2
XFILLER_0_37 vssd1 vssd1 vccd1 vccd1 sky130_fd_sc_hd__fill_1
X_0751_ mux_left_track_11.mux_2level_tapbuf_basis_input2_mem1_2_out vssd1 vssd1 vccd1
+ vccd1 mux_left_track_11.out sky130_fd_sc_hd__inv_2
XFILLER_9_57 vssd1 vssd1 vccd1 vccd1 sky130_ef_sc_hd__decap_12
X_0820_ _0176_ vssd1 vssd1 vccd1 vccd1 _0066_ sky130_fd_sc_hd__inv_2
X_0682_ mem_bottom_track_7.DFFR_0_.Q vssd1 vssd1 vccd1 vccd1 _0204_ sky130_fd_sc_hd__inv_2
XFILLER_36_3 vssd1 vssd1 vccd1 vccd1 sky130_fd_sc_hd__fill_2
X_1096_ mux_bottom_track_19.mux_2level_tapbuf_basis_input2_mem1_1_out _0236_ vssd1
+ vssd1 vccd1 vccd1 mux_bottom_track_19.mux_2level_tapbuf_basis_input2_mem1_2_out
+ sky130_fd_sc_hd__ebufn_2
X_1234_ net137 _0374_ vssd1 vssd1 vccd1 vccd1 mux_left_track_35.mux_2level_tapbuf_basis_input2_mem1_1_out
+ sky130_fd_sc_hd__ebufn_2
X_1165_ mux_left_track_19.mux_2level_tapbuf_basis_input2_mem1_0_out _0305_ vssd1 vssd1
+ vccd1 vccd1 mux_left_track_19.mux_2level_tapbuf_basis_input2_mem1_2_out sky130_fd_sc_hd__ebufn_2
XFILLER_20_266 vssd1 vssd1 vccd1 vccd1 sky130_fd_sc_hd__fill_1
X_0949_ prog_clk mem_bottom_track_33.DFFR_1_.Q _0038_ vssd1 vssd1 vccd1 vccd1 mem_bottom_track_35.DFFR_0_.Q
+ sky130_fd_sc_hd__dfrtp_1
XFILLER_18_44 vssd1 vssd1 vccd1 vccd1 sky130_fd_sc_hd__decap_4
XFILLER_11_222 vssd1 vssd1 vccd1 vccd1 sky130_fd_sc_hd__fill_2
XFILLER_46_141 vssd1 vssd1 vccd1 vccd1 sky130_fd_sc_hd__fill_2
XFILLER_38_119 vssd1 vssd1 vccd1 vccd1 sky130_fd_sc_hd__decap_4
X_0665_ mem_bottom_track_11.DFFR_0_.Q vssd1 vssd1 vccd1 vccd1 _0159_ sky130_fd_sc_hd__clkbuf_1
X_0734_ net30 vssd1 vssd1 vccd1 vccd1 mux_bottom_track_17.INVTX1_2_.out sky130_fd_sc_hd__inv_2
X_0803_ net37 vssd1 vssd1 vccd1 vccd1 mux_left_track_33.INVTX1_0_.out sky130_fd_sc_hd__clkinv_2
X_0596_ mem_left_track_3.DFFR_0_.Q vssd1 vssd1 vccd1 vccd1 _0259_ sky130_fd_sc_hd__inv_2
X_1217_ mux_left_track_25.INVTX1_0_.out _0357_ vssd1 vssd1 vccd1 vccd1 mux_left_track_25.mux_2level_tapbuf_basis_input2_mem1_0_out
+ sky130_fd_sc_hd__ebufn_1
XFILLER_37_174 vssd1 vssd1 vccd1 vccd1 sky130_fd_sc_hd__decap_4
XFILLER_37_152 vssd1 vssd1 vccd1 vccd1 sky130_fd_sc_hd__decap_4
X_1148_ mux_left_track_13.INVTX1_2_.out _0288_ vssd1 vssd1 vccd1 vccd1 mux_left_track_13.mux_2level_tapbuf_basis_input2_mem1_1_out
+ sky130_fd_sc_hd__ebufn_1
X_1079_ net106 _0219_ vssd1 vssd1 vccd1 vccd1 mux_bottom_track_13.mux_2level_tapbuf_basis_input2_mem1_1_out
+ sky130_fd_sc_hd__ebufn_2
XFILLER_4_207 vssd1 vssd1 vccd1 vccd1 sky130_fd_sc_hd__decap_4
XFILLER_29_54 vssd1 vssd1 vccd1 vccd1 sky130_fd_sc_hd__fill_2
XFILLER_28_174 vssd1 vssd1 vccd1 vccd1 sky130_fd_sc_hd__decap_4
XFILLER_28_141 vssd1 vssd1 vccd1 vccd1 sky130_fd_sc_hd__decap_8
XFILLER_45_53 vssd1 vssd1 vccd1 vccd1 sky130_fd_sc_hd__decap_3
XFILLER_43_166 vssd1 vssd1 vccd1 vccd1 sky130_fd_sc_hd__fill_2
XFILLER_6_47 vssd1 vssd1 vccd1 vccd1 sky130_ef_sc_hd__decap_12
X_0450_ mem_left_track_25.DFFR_1_.Q vssd1 vssd1 vccd1 vccd1 _0087_ sky130_fd_sc_hd__clkbuf_1
XTAP_328 vssd1 vccd1 sky130_fd_sc_hd__tapvpwrvgnd_1
XTAP_317 vssd1 vccd1 sky130_fd_sc_hd__tapvpwrvgnd_1
XTAP_306 vssd1 vccd1 sky130_fd_sc_hd__tapvpwrvgnd_1
XFILLER_3_251 vssd1 vssd1 vccd1 vccd1 sky130_fd_sc_hd__decap_4
XFILLER_3_240 vssd1 vssd1 vccd1 vccd1 sky130_fd_sc_hd__fill_1
XFILLER_34_111 vssd1 vssd1 vccd1 vccd1 sky130_fd_sc_hd__decap_6
XFILLER_19_141 vssd1 vssd1 vccd1 vccd1 sky130_fd_sc_hd__decap_8
XFILLER_19_174 vssd1 vssd1 vccd1 vccd1 sky130_fd_sc_hd__decap_4
XFILLER_34_177 vssd1 vssd1 vccd1 vccd1 sky130_fd_sc_hd__decap_4
X_0648_ _0153_ vssd1 vssd1 vccd1 vccd1 _0225_ sky130_fd_sc_hd__clkbuf_1
X_0717_ net24 vssd1 vssd1 vccd1 vccd1 mux_bottom_track_5.INVTX1_2_.out sky130_fd_sc_hd__inv_2
X_0579_ mem_left_track_7.DFFR_0_.Q vssd1 vssd1 vccd1 vccd1 _0130_ sky130_fd_sc_hd__clkbuf_1
XFILLER_40_158 vssd1 vssd1 vccd1 vccd1 sky130_fd_sc_hd__decap_4
XFILLER_40_147 vssd1 vssd1 vccd1 vccd1 sky130_fd_sc_hd__fill_1
XFILLER_25_166 vssd1 vssd1 vccd1 vccd1 sky130_fd_sc_hd__fill_2
XFILLER_15_89 vssd1 vssd1 vccd1 vccd1 sky130_fd_sc_hd__fill_2
XFILLER_31_55 vssd1 vssd1 vccd1 vccd1 sky130_fd_sc_hd__fill_1
Xoutput77 net77 vssd1 vssd1 vccd1 vccd1 chanx_left_out[6] sky130_fd_sc_hd__buf_2
Xoutput66 net66 vssd1 vssd1 vccd1 vccd1 chanx_left_out[13] sky130_fd_sc_hd__buf_2
XFILLER_0_265 vssd1 vssd1 vccd1 vccd1 sky130_fd_sc_hd__decap_4
Xoutput99 net99 vssd1 vssd1 vccd1 vccd1 chany_bottom_out[9] sky130_fd_sc_hd__buf_2
Xoutput88 net88 vssd1 vssd1 vccd1 vccd1 chany_bottom_out[16] sky130_fd_sc_hd__buf_2
XFILLER_0_298 vssd1 vssd1 vccd1 vccd1 sky130_fd_sc_hd__fill_1
XFILLER_31_169 vssd1 vssd1 vccd1 vccd1 sky130_fd_sc_hd__fill_2
XFILLER_31_103 vssd1 vssd1 vccd1 vccd1 sky130_fd_sc_hd__decap_4
XTAP_114 vssd1 vccd1 sky130_fd_sc_hd__tapvpwrvgnd_1
XTAP_103 vssd1 vccd1 sky130_fd_sc_hd__tapvpwrvgnd_1
X_0502_ mem_bottom_track_23.DFFR_1_.Q vssd1 vssd1 vccd1 vccd1 _0320_ sky130_fd_sc_hd__inv_2
X_1198__128 vssd1 vssd1 vccd1 vccd1 net128 _1198__128/LO sky130_fd_sc_hd__conb_1
XFILLER_39_225 vssd1 vssd1 vccd1 vccd1 sky130_fd_sc_hd__decap_4
XFILLER_39_203 vssd1 vssd1 vccd1 vccd1 sky130_fd_sc_hd__decap_4
X_0433_ _0081_ vssd1 vssd1 vccd1 vccd1 _0366_ sky130_fd_sc_hd__clkbuf_1
XTAP_125 vssd1 vccd1 sky130_fd_sc_hd__tapvpwrvgnd_1
XTAP_136 vssd1 vccd1 sky130_fd_sc_hd__tapvpwrvgnd_1
XTAP_147 vssd1 vccd1 sky130_fd_sc_hd__tapvpwrvgnd_1
XTAP_158 vssd1 vccd1 sky130_fd_sc_hd__tapvpwrvgnd_1
XTAP_169 vssd1 vccd1 sky130_fd_sc_hd__tapvpwrvgnd_1
XFILLER_42_65 vssd1 vssd1 vccd1 vccd1 sky130_ef_sc_hd__decap_12
XFILLER_13_103 vssd1 vssd1 vccd1 vccd1 sky130_fd_sc_hd__decap_4
XFILLER_13_169 vssd1 vssd1 vccd1 vccd1 sky130_fd_sc_hd__fill_2
XFILLER_21_180 vssd1 vssd1 vccd1 vccd1 sky130_fd_sc_hd__decap_4
XFILLER_3_15 vssd1 vssd1 vccd1 vccd1 sky130_ef_sc_hd__decap_12
XFILLER_36_239 vssd1 vssd1 vccd1 vccd1 sky130_fd_sc_hd__decap_4
X_1061__103 vssd1 vssd1 vccd1 vccd1 net103 _1061__103/LO sky130_fd_sc_hd__conb_1
XFILLER_8_151 vssd1 vssd1 vccd1 vccd1 sky130_fd_sc_hd__decap_4
XFILLER_8_184 vssd1 vssd1 vccd1 vccd1 sky130_fd_sc_hd__decap_4
XFILLER_8_195 vssd1 vssd1 vccd1 vccd1 sky130_fd_sc_hd__fill_1
X_0416_ mem_left_track_35.DFFR_1_.Q vssd1 vssd1 vccd1 vccd1 _0376_ sky130_fd_sc_hd__inv_2
XFILLER_37_87 vssd1 vssd1 vccd1 vccd1 sky130_fd_sc_hd__decap_4
XFILLER_5_110 vssd1 vssd1 vccd1 vccd1 sky130_fd_sc_hd__fill_2
X_1181_ mux_bottom_track_23.INVTX1_0_.out _0321_ vssd1 vssd1 vccd1 vccd1 mux_bottom_track_23.mux_2level_tapbuf_basis_input2_mem1_0_out
+ sky130_fd_sc_hd__ebufn_1
XFILLER_32_297 vssd1 vssd1 vccd1 vccd1 sky130_fd_sc_hd__fill_2
XFILLER_32_253 vssd1 vssd1 vccd1 vccd1 sky130_fd_sc_hd__decap_3
XFILLER_32_220 vssd1 vssd1 vccd1 vccd1 sky130_fd_sc_hd__decap_4
X_0896_ prog_clk mem_bottom_track_7.DFFR_0_.Q _0061_ vssd1 vssd1 vccd1 vccd1 mem_bottom_track_7.DFFR_1_.Q
+ sky130_fd_sc_hd__dfrtp_2
X_0965_ prog_clk mem_left_track_33.DFFR_1_.Q _0054_ vssd1 vssd1 vccd1 vccd1 mem_left_track_35.DFFR_0_.Q
+ sky130_fd_sc_hd__dfrtp_1
XFILLER_4_80 vssd1 vssd1 vccd1 vccd1 sky130_fd_sc_hd__decap_4
XFILLER_15_209 vssd1 vssd1 vccd1 vccd1 sky130_fd_sc_hd__decap_8
XFILLER_23_286 vssd1 vssd1 vccd1 vccd1 sky130_fd_sc_hd__decap_6
XFILLER_0_16 vssd1 vssd1 vccd1 vccd1 sky130_fd_sc_hd__decap_6
XFILLER_9_69 vssd1 vssd1 vccd1 vccd1 sky130_fd_sc_hd__fill_2
XFILLER_14_253 vssd1 vssd1 vccd1 vccd1 sky130_fd_sc_hd__decap_8
XFILLER_14_297 vssd1 vssd1 vccd1 vccd1 sky130_fd_sc_hd__fill_2
X_0681_ _0164_ vssd1 vssd1 vccd1 vccd1 _0200_ sky130_fd_sc_hd__clkbuf_1
X_0750_ net43 vssd1 vssd1 vccd1 vccd1 mux_left_track_9.INVTX1_0_.out sky130_fd_sc_hd__clkinv_2
XFILLER_29_3 vssd1 vssd1 vccd1 vccd1 sky130_ef_sc_hd__decap_12
X_1233_ mux_left_track_33.INVTX1_0_.out _0373_ vssd1 vssd1 vccd1 vccd1 mux_left_track_33.mux_2level_tapbuf_basis_input2_mem1_0_out
+ sky130_fd_sc_hd__ebufn_1
X_1095_ mux_bottom_track_15.INVTX1_1_.out _0235_ vssd1 vssd1 vccd1 vccd1 mux_bottom_track_17.mux_2level_tapbuf_basis_input2_mem1_0_out
+ sky130_fd_sc_hd__ebufn_1
X_1164_ mux_left_track_1.INVTX1_1_.out _0304_ vssd1 vssd1 vccd1 vccd1 mux_left_track_19.mux_2level_tapbuf_basis_input2_mem1_0_out
+ sky130_fd_sc_hd__ebufn_1
X_0948_ prog_clk mem_bottom_track_35.DFFR_0_.Q _0037_ vssd1 vssd1 vccd1 vccd1 mem_bottom_track_35.DFFR_1_.Q
+ sky130_fd_sc_hd__dfrtp_1
XFILLER_20_245 vssd1 vssd1 vccd1 vccd1 sky130_fd_sc_hd__decap_6
X_0879_ _0181_ vssd1 vssd1 vccd1 vccd1 _0044_ sky130_fd_sc_hd__inv_2
XFILLER_9_290 vssd1 vssd1 vccd1 vccd1 sky130_fd_sc_hd__decap_4
XFILLER_18_56 vssd1 vssd1 vccd1 vccd1 sky130_fd_sc_hd__decap_4
XFILLER_11_201 vssd1 vssd1 vccd1 vccd1 sky130_fd_sc_hd__decap_4
XFILLER_7_216 vssd1 vssd1 vccd1 vccd1 sky130_fd_sc_hd__decap_8
XFILLER_7_249 vssd1 vssd1 vccd1 vccd1 sky130_fd_sc_hd__fill_1
XFILLER_11_278 vssd1 vssd1 vccd1 vccd1 sky130_fd_sc_hd__fill_2
XFILLER_46_197 vssd1 vssd1 vccd1 vccd1 sky130_fd_sc_hd__fill_2
XFILLER_46_175 vssd1 vssd1 vccd1 vccd1 sky130_fd_sc_hd__decap_8
X_0802_ mux_left_track_33.mux_2level_tapbuf_basis_input2_mem1_1_out vssd1 vssd1 vccd1
+ vccd1 mux_left_track_33.out sky130_fd_sc_hd__inv_2
X_0664_ mem_bottom_track_11.DFFR_0_.Q vssd1 vssd1 vccd1 vccd1 _0216_ sky130_fd_sc_hd__inv_2
X_0733_ net2 vssd1 vssd1 vccd1 vccd1 mux_bottom_track_17.INVTX1_1_.out sky130_fd_sc_hd__inv_2