* NGSPICE file created from sb_4__1_.ext - technology: sky130A

* Black-box entry subcircuit for sky130_ef_sc_hd__decap_12 abstract view
.subckt sky130_ef_sc_hd__decap_12 VGND VNB VPB VPWR
.ends

* Black-box entry subcircuit for sky130_fd_sc_hd__tapvpwrvgnd_1 abstract view
.subckt sky130_fd_sc_hd__tapvpwrvgnd_1 VGND VPWR
.ends

* Black-box entry subcircuit for sky130_fd_sc_hd__fill_2 abstract view
.subckt sky130_fd_sc_hd__fill_2 VGND VNB VPB VPWR
.ends

* Black-box entry subcircuit for sky130_fd_sc_hd__decap_3 abstract view
.subckt sky130_fd_sc_hd__decap_3 VGND VNB VPB VPWR
.ends

* Black-box entry subcircuit for sky130_fd_sc_hd__fill_1 abstract view
.subckt sky130_fd_sc_hd__fill_1 VGND VNB VPB VPWR
.ends

* Black-box entry subcircuit for sky130_fd_sc_hd__decap_6 abstract view
.subckt sky130_fd_sc_hd__decap_6 VGND VNB VPB VPWR
.ends

* Black-box entry subcircuit for sky130_fd_sc_hd__decap_4 abstract view
.subckt sky130_fd_sc_hd__decap_4 VGND VNB VPB VPWR
.ends

* Black-box entry subcircuit for sky130_fd_sc_hd__decap_8 abstract view
.subckt sky130_fd_sc_hd__decap_8 VGND VNB VPB VPWR
.ends

* Black-box entry subcircuit for sky130_fd_sc_hd__clkbuf_1 abstract view
.subckt sky130_fd_sc_hd__clkbuf_1 A VGND VNB VPB VPWR X
.ends

* Black-box entry subcircuit for sky130_fd_sc_hd__conb_1 abstract view
.subckt sky130_fd_sc_hd__conb_1 VGND VNB VPB VPWR HI LO
.ends

* Black-box entry subcircuit for sky130_fd_sc_hd__inv_2 abstract view
.subckt sky130_fd_sc_hd__inv_2 A VGND VNB VPB VPWR Y
.ends

* Black-box entry subcircuit for sky130_fd_sc_hd__ebufn_1 abstract view
.subckt sky130_fd_sc_hd__ebufn_1 A TE_B VGND VNB VPB VPWR Z
.ends

* Black-box entry subcircuit for sky130_fd_sc_hd__ebufn_4 abstract view
.subckt sky130_fd_sc_hd__ebufn_4 A TE_B VGND VNB VPB VPWR Z
.ends

* Black-box entry subcircuit for sky130_fd_sc_hd__dfrtp_1 abstract view
.subckt sky130_fd_sc_hd__dfrtp_1 CLK D RESET_B VGND VNB VPB VPWR Q
.ends

* Black-box entry subcircuit for sky130_fd_sc_hd__ebufn_2 abstract view
.subckt sky130_fd_sc_hd__ebufn_2 A TE_B VGND VNB VPB VPWR Z
.ends

* Black-box entry subcircuit for sky130_fd_sc_hd__diode_2 abstract view
.subckt sky130_fd_sc_hd__diode_2 DIODE VGND VNB VPB VPWR
.ends

* Black-box entry subcircuit for sky130_fd_sc_hd__buf_2 abstract view
.subckt sky130_fd_sc_hd__buf_2 A VGND VNB VPB VPWR X
.ends

* Black-box entry subcircuit for sky130_fd_sc_hd__clkbuf_8 abstract view
.subckt sky130_fd_sc_hd__clkbuf_8 A VGND VNB VPB VPWR X
.ends

* Black-box entry subcircuit for sky130_fd_sc_hd__dfrtp_2 abstract view
.subckt sky130_fd_sc_hd__dfrtp_2 CLK D RESET_B VGND VNB VPB VPWR Q
.ends

* Black-box entry subcircuit for sky130_fd_sc_hd__clkbuf_2 abstract view
.subckt sky130_fd_sc_hd__clkbuf_2 A VGND VNB VPB VPWR X
.ends

* Black-box entry subcircuit for sky130_fd_sc_hd__buf_4 abstract view
.subckt sky130_fd_sc_hd__buf_4 A VGND VNB VPB VPWR X
.ends

* Black-box entry subcircuit for sky130_fd_sc_hd__dfrtp_4 abstract view
.subckt sky130_fd_sc_hd__dfrtp_4 CLK D RESET_B VGND VNB VPB VPWR Q
.ends

* Black-box entry subcircuit for sky130_fd_sc_hd__clkbuf_16 abstract view
.subckt sky130_fd_sc_hd__clkbuf_16 A VGND VNB VPB VPWR X
.ends

* Black-box entry subcircuit for sky130_fd_sc_hd__dlymetal6s2s_1 abstract view
.subckt sky130_fd_sc_hd__dlymetal6s2s_1 A VGND VNB VPB VPWR X
.ends

* Black-box entry subcircuit for sky130_fd_sc_hd__clkinv_2 abstract view
.subckt sky130_fd_sc_hd__clkinv_2 A VGND VNB VPB VPWR Y
.ends

.subckt sb_4__1_ bottom_left_grid_right_width_0_height_0_subtile_0__pin_O_1_ bottom_left_grid_right_width_0_height_0_subtile_0__pin_O_5_
+ bottom_right_grid_left_width_0_height_0_subtile_0__pin_inpad_0_ bottom_right_grid_left_width_0_height_0_subtile_1__pin_inpad_0_
+ bottom_right_grid_left_width_0_height_0_subtile_2__pin_inpad_0_ bottom_right_grid_left_width_0_height_0_subtile_3__pin_inpad_0_
+ bottom_right_grid_left_width_0_height_0_subtile_4__pin_inpad_0_ bottom_right_grid_left_width_0_height_0_subtile_5__pin_inpad_0_
+ bottom_right_grid_left_width_0_height_0_subtile_6__pin_inpad_0_ bottom_right_grid_left_width_0_height_0_subtile_7__pin_inpad_0_
+ ccff_head ccff_tail chanx_left_in[0] chanx_left_in[10] chanx_left_in[11] chanx_left_in[12]
+ chanx_left_in[13] chanx_left_in[14] chanx_left_in[15] chanx_left_in[16] chanx_left_in[17]
+ chanx_left_in[18] chanx_left_in[1] chanx_left_in[2] chanx_left_in[3] chanx_left_in[4]
+ chanx_left_in[5] chanx_left_in[6] chanx_left_in[7] chanx_left_in[8] chanx_left_in[9]
+ chanx_left_out[0] chanx_left_out[10] chanx_left_out[11] chanx_left_out[12] chanx_left_out[13]
+ chanx_left_out[14] chanx_left_out[15] chanx_left_out[16] chanx_left_out[17] chanx_left_out[18]
+ chanx_left_out[1] chanx_left_out[2] chanx_left_out[3] chanx_left_out[4] chanx_left_out[5]
+ chanx_left_out[6] chanx_left_out[7] chanx_left_out[8] chanx_left_out[9] chany_bottom_in[0]
+ chany_bottom_in[10] chany_bottom_in[11] chany_bottom_in[12] chany_bottom_in[13]
+ chany_bottom_in[14] chany_bottom_in[15] chany_bottom_in[16] chany_bottom_in[17]
+ chany_bottom_in[18] chany_bottom_in[1] chany_bottom_in[2] chany_bottom_in[3] chany_bottom_in[4]
+ chany_bottom_in[5] chany_bottom_in[6] chany_bottom_in[7] chany_bottom_in[8] chany_bottom_in[9]
+ chany_bottom_out[0] chany_bottom_out[10] chany_bottom_out[11] chany_bottom_out[12]
+ chany_bottom_out[13] chany_bottom_out[14] chany_bottom_out[15] chany_bottom_out[16]
+ chany_bottom_out[17] chany_bottom_out[18] chany_bottom_out[1] chany_bottom_out[2]
+ chany_bottom_out[3] chany_bottom_out[4] chany_bottom_out[5] chany_bottom_out[6]
+ chany_bottom_out[7] chany_bottom_out[8] chany_bottom_out[9] chany_top_in[0] chany_top_in[10]
+ chany_top_in[11] chany_top_in[12] chany_top_in[13] chany_top_in[14] chany_top_in[15]
+ chany_top_in[16] chany_top_in[17] chany_top_in[18] chany_top_in[1] chany_top_in[2]
+ chany_top_in[3] chany_top_in[4] chany_top_in[5] chany_top_in[6] chany_top_in[7]
+ chany_top_in[8] chany_top_in[9] chany_top_out[0] chany_top_out[10] chany_top_out[11]
+ chany_top_out[12] chany_top_out[13] chany_top_out[14] chany_top_out[15] chany_top_out[16]
+ chany_top_out[17] chany_top_out[18] chany_top_out[1] chany_top_out[2] chany_top_out[3]
+ chany_top_out[4] chany_top_out[5] chany_top_out[6] chany_top_out[7] chany_top_out[8]
+ chany_top_out[9] left_bottom_grid_top_width_0_height_0_subtile_0__pin_O_0_ left_bottom_grid_top_width_0_height_0_subtile_0__pin_O_4_
+ left_top_grid_bottom_width_0_height_0_subtile_0__pin_O_2_ left_top_grid_bottom_width_0_height_0_subtile_0__pin_O_6_
+ pReset prog_clk top_left_grid_right_width_0_height_0_subtile_0__pin_O_1_ top_left_grid_right_width_0_height_0_subtile_0__pin_O_5_
+ top_right_grid_left_width_0_height_0_subtile_0__pin_inpad_0_ top_right_grid_left_width_0_height_0_subtile_1__pin_inpad_0_
+ top_right_grid_left_width_0_height_0_subtile_2__pin_inpad_0_ top_right_grid_left_width_0_height_0_subtile_3__pin_inpad_0_
+ top_right_grid_left_width_0_height_0_subtile_4__pin_inpad_0_ top_right_grid_left_width_0_height_0_subtile_5__pin_inpad_0_
+ top_right_grid_left_width_0_height_0_subtile_6__pin_inpad_0_ top_right_grid_left_width_0_height_0_subtile_7__pin_inpad_0_
+ vccd1 vssd1
XFILLER_54_258 vssd1 vssd1 vccd1 vccd1 sky130_ef_sc_hd__decap_12
XFILLER_39_244 vssd1 vssd1 vccd1 vccd1 sky130_ef_sc_hd__decap_12
XTAP_177 vssd1 vccd1 sky130_fd_sc_hd__tapvpwrvgnd_1
XTAP_188 vssd1 vccd1 sky130_fd_sc_hd__tapvpwrvgnd_1
XTAP_199 vssd1 vccd1 sky130_fd_sc_hd__tapvpwrvgnd_1
XFILLER_52_29 vssd1 vssd1 vccd1 vccd1 sky130_ef_sc_hd__decap_12
XFILLER_10_306 vssd1 vssd1 vccd1 vccd1 sky130_fd_sc_hd__fill_2
XFILLER_45_225 vssd1 vssd1 vccd1 vccd1 sky130_ef_sc_hd__decap_12
XFILLER_26_85 vssd1 vssd1 vccd1 vccd1 sky130_fd_sc_hd__decap_3
XFILLER_13_111 vssd1 vssd1 vccd1 vccd1 sky130_fd_sc_hd__fill_1
XFILLER_42_95 vssd1 vssd1 vccd1 vccd1 sky130_fd_sc_hd__decap_6
XFILLER_9_148 vssd1 vssd1 vccd1 vccd1 sky130_fd_sc_hd__decap_4
XFILLER_13_155 vssd1 vssd1 vccd1 vccd1 sky130_fd_sc_hd__decap_4
XFILLER_13_166 vssd1 vssd1 vccd1 vccd1 sky130_fd_sc_hd__fill_2
XFILLER_54_9 vssd1 vssd1 vccd1 vccd1 sky130_ef_sc_hd__decap_12
XFILLER_47_8 vssd1 vssd1 vccd1 vccd1 sky130_ef_sc_hd__decap_12
XFILLER_36_214 vssd1 vssd1 vccd1 vccd1 sky130_fd_sc_hd__decap_8
XFILLER_51_217 vssd1 vssd1 vccd1 vccd1 sky130_fd_sc_hd__decap_6
XFILLER_59_317 vssd1 vssd1 vccd1 vccd1 sky130_ef_sc_hd__decap_12
X_0419_ mem_left_track_13.DFFR_1_.Q vssd1 vssd1 vccd1 vccd1 _0137_ sky130_fd_sc_hd__clkbuf_1
XFILLER_42_228 vssd1 vssd1 vccd1 vccd1 sky130_ef_sc_hd__decap_12
XFILLER_27_225 vssd1 vssd1 vccd1 vccd1 sky130_ef_sc_hd__decap_12
XFILLER_2_357 vssd1 vssd1 vccd1 vccd1 sky130_fd_sc_hd__decap_6
XFILLER_12_76 vssd1 vssd1 vccd1 vccd1 sky130_fd_sc_hd__decap_8
XFILLER_18_236 vssd1 vssd1 vccd1 vccd1 sky130_fd_sc_hd__decap_4
XFILLER_53_83 vssd1 vssd1 vccd1 vccd1 sky130_ef_sc_hd__decap_12
X_1084__144 vssd1 vssd1 vccd1 vccd1 net144 _1084__144/LO sky130_fd_sc_hd__conb_1
XFILLER_26_280 vssd1 vssd1 vccd1 vccd1 sky130_fd_sc_hd__decap_8
XFILLER_5_173 vssd1 vssd1 vccd1 vccd1 sky130_fd_sc_hd__fill_1
X_0770_ _0120_ vssd1 vssd1 vccd1 vccd1 _0000_ sky130_fd_sc_hd__inv_2
XFILLER_56_309 vssd1 vssd1 vccd1 vccd1 sky130_ef_sc_hd__decap_12
X_1253_ mux_left_track_17.INVTX1_1_.out _0354_ vssd1 vssd1 vccd1 vccd1 mux_left_track_17.mux_2level_tapbuf_basis_input2_mem1_0_out
+ sky130_fd_sc_hd__ebufn_1
XFILLER_1_390 vssd1 vssd1 vccd1 vccd1 sky130_fd_sc_hd__fill_2
X_1184_ mux_left_track_1.mux_2level_tapbuf_basis_input3_mem3_0_out _0285_ vssd1 vssd1
+ vccd1 vccd1 mux_left_track_1.mux_2level_tapbuf_basis_input3_mem3_1_out sky130_fd_sc_hd__ebufn_4
XFILLER_32_283 vssd1 vssd1 vccd1 vccd1 sky130_ef_sc_hd__decap_12
XFILLER_32_250 vssd1 vssd1 vccd1 vccd1 sky130_fd_sc_hd__fill_2
X_0968_ clknet_4_10_0_prog_clk mem_left_track_15.DFFR_0_.Q _0073_ vssd1 vssd1 vccd1
+ vccd1 mem_left_track_15.DFFR_1_.Q sky130_fd_sc_hd__dfrtp_1
X_0899_ clknet_4_2_0_prog_clk mem_bottom_track_17.DFFR_5_.Q _0004_ vssd1 vssd1 vccd1
+ vccd1 mem_bottom_track_17.DFFR_6_.Q sky130_fd_sc_hd__dfrtp_1
XFILLER_59_169 vssd1 vssd1 vccd1 vccd1 sky130_ef_sc_hd__decap_12
XFILLER_59_125 vssd1 vssd1 vccd1 vccd1 sky130_ef_sc_hd__decap_12
XFILLER_47_309 vssd1 vssd1 vccd1 vccd1 sky130_ef_sc_hd__decap_12
XFILLER_23_272 vssd1 vssd1 vccd1 vccd1 sky130_fd_sc_hd__fill_1
XFILLER_11_401 vssd1 vssd1 vccd1 vccd1 sky130_fd_sc_hd__fill_1
XFILLER_15_239 vssd1 vssd1 vccd1 vccd1 sky130_fd_sc_hd__decap_4
XFILLER_23_64 vssd1 vssd1 vccd1 vccd1 sky130_fd_sc_hd__decap_4
XFILLER_7_405 vssd1 vssd1 vccd1 vccd1 sky130_fd_sc_hd__fill_2
XFILLER_38_309 vssd1 vssd1 vccd1 vccd1 sky130_fd_sc_hd__decap_8
XFILLER_48_83 vssd1 vssd1 vccd1 vccd1 sky130_fd_sc_hd__fill_1
XFILLER_0_57 vssd1 vssd1 vccd1 vccd1 sky130_fd_sc_hd__fill_2
X_0822_ _0125_ vssd1 vssd1 vccd1 vccd1 _0047_ sky130_fd_sc_hd__inv_2
XFILLER_9_99 vssd1 vssd1 vccd1 vccd1 sky130_fd_sc_hd__decap_4
XFILLER_14_272 vssd1 vssd1 vccd1 vccd1 sky130_ef_sc_hd__decap_12
X_0684_ net53 vssd1 vssd1 vccd1 vccd1 mux_bottom_track_33.INVTX1_1_.out sky130_fd_sc_hd__inv_2
XFILLER_50_3 vssd1 vssd1 vccd1 vccd1 sky130_ef_sc_hd__decap_12
X_0753_ _0119_ vssd1 vssd1 vccd1 vccd1 _0102_ sky130_fd_sc_hd__inv_2
XFILLER_56_139 vssd1 vssd1 vccd1 vccd1 sky130_fd_sc_hd__fill_1
X_1236_ mux_left_track_23.INVTX1_2_.out _0337_ vssd1 vssd1 vccd1 vccd1 mux_left_track_23.mux_2level_tapbuf_basis_input2_mem1_1_out
+ sky130_fd_sc_hd__ebufn_1
XFILLER_64_194 vssd1 vssd1 vccd1 vccd1 sky130_fd_sc_hd__fill_2
XFILLER_52_389 vssd1 vssd1 vccd1 vccd1 sky130_ef_sc_hd__decap_12
XFILLER_52_345 vssd1 vssd1 vccd1 vccd1 sky130_ef_sc_hd__decap_12
XFILLER_52_301 vssd1 vssd1 vccd1 vccd1 sky130_fd_sc_hd__decap_6
X_1167_ mux_bottom_track_33.mux_2level_tapbuf_basis_input3_mem3_2_out _0268_ vssd1
+ vssd1 vccd1 vccd1 mux_bottom_track_33.mux_2level_tapbuf_basis_input3_mem3_3_out
+ sky130_fd_sc_hd__ebufn_4
X_1098_ mux_bottom_track_1.INVTX1_6_.out _0199_ vssd1 vssd1 vccd1 vccd1 mux_bottom_track_1.mux_2level_tapbuf_basis_input4_mem4_1_out
+ sky130_fd_sc_hd__ebufn_4
XFILLER_60_29 vssd1 vssd1 vccd1 vccd1 sky130_ef_sc_hd__decap_12
XFILLER_20_253 vssd1 vssd1 vccd1 vccd1 sky130_ef_sc_hd__decap_12
XFILLER_20_231 vssd1 vssd1 vccd1 vccd1 sky130_fd_sc_hd__fill_1
XFILLER_62_109 vssd1 vssd1 vccd1 vccd1 sky130_ef_sc_hd__decap_12
XFILLER_55_161 vssd1 vssd1 vccd1 vccd1 sky130_fd_sc_hd__decap_6
XFILLER_34_85 vssd1 vssd1 vccd1 vccd1 sky130_fd_sc_hd__decap_4
XFILLER_11_253 vssd1 vssd1 vccd1 vccd1 sky130_fd_sc_hd__decap_6
XTAP_507 vssd1 vccd1 sky130_fd_sc_hd__tapvpwrvgnd_1
XFILLER_7_279 vssd1 vssd1 vccd1 vccd1 sky130_fd_sc_hd__fill_1
XFILLER_59_93 vssd1 vssd1 vccd1 vccd1 sky130_ef_sc_hd__decap_12
XTAP_529 vssd1 vccd1 sky130_fd_sc_hd__tapvpwrvgnd_1
XTAP_518 vssd1 vccd1 sky130_fd_sc_hd__tapvpwrvgnd_1
XFILLER_38_117 vssd1 vssd1 vccd1 vccd1 sky130_fd_sc_hd__decap_4
XFILLER_46_194 vssd1 vssd1 vccd1 vccd1 sky130_fd_sc_hd__fill_2
XFILLER_34_389 vssd1 vssd1 vccd1 vccd1 sky130_fd_sc_hd__decap_6
XFILLER_34_345 vssd1 vssd1 vccd1 vccd1 sky130_ef_sc_hd__decap_12
X_1021_ net57 vssd1 vssd1 vccd1 vccd1 net111 sky130_fd_sc_hd__clkbuf_1
X_0805_ _0123_ vssd1 vssd1 vccd1 vccd1 _0032_ sky130_fd_sc_hd__inv_2
X_0598_ mem_top_track_24.DFFR_3_.Q vssd1 vssd1 vccd1 vccd1 _0188_ sky130_fd_sc_hd__inv_2
X_0667_ net83 vssd1 vssd1 vccd1 vccd1 mux_top_track_32.INVTX1_1_.out sky130_fd_sc_hd__inv_2
X_0736_ _0158_ vssd1 vssd1 vccd1 vccd1 _0087_ sky130_fd_sc_hd__inv_2
XFILLER_6_290 vssd1 vssd1 vccd1 vccd1 sky130_ef_sc_hd__decap_12
XFILLER_29_106 vssd1 vssd1 vccd1 vccd1 sky130_fd_sc_hd__decap_6
X_1219_ mux_bottom_track_1.INVTX1_1_.out _0320_ vssd1 vssd1 vccd1 vccd1 mux_left_track_11.mux_2level_tapbuf_basis_input2_mem1_0_out
+ sky130_fd_sc_hd__ebufn_2
XFILLER_52_197 vssd1 vssd1 vccd1 vccd1 sky130_fd_sc_hd__decap_8
XFILLER_52_153 vssd1 vssd1 vccd1 vccd1 sky130_ef_sc_hd__decap_12
XFILLER_4_249 vssd1 vssd1 vccd1 vccd1 sky130_fd_sc_hd__decap_3
XFILLER_29_52 vssd1 vssd1 vccd1 vccd1 sky130_fd_sc_hd__decap_4
XFILLER_43_186 vssd1 vssd1 vccd1 vccd1 sky130_fd_sc_hd__decap_4
XFILLER_16_345 vssd1 vssd1 vccd1 vccd1 sky130_ef_sc_hd__decap_12
XFILLER_16_389 vssd1 vssd1 vccd1 vccd1 sky130_ef_sc_hd__decap_12
XFILLER_31_337 vssd1 vssd1 vccd1 vccd1 sky130_ef_sc_hd__decap_12
X_0452_ mem_left_track_19.DFFR_1_.Q vssd1 vssd1 vccd1 vccd1 _0148_ sky130_fd_sc_hd__clkbuf_1
XTAP_348 vssd1 vccd1 sky130_fd_sc_hd__tapvpwrvgnd_1
XTAP_337 vssd1 vccd1 sky130_fd_sc_hd__tapvpwrvgnd_1
XTAP_326 vssd1 vccd1 sky130_fd_sc_hd__tapvpwrvgnd_1
XTAP_315 vssd1 vccd1 sky130_fd_sc_hd__tapvpwrvgnd_1
XTAP_304 vssd1 vccd1 sky130_fd_sc_hd__tapvpwrvgnd_1
X_0521_ mem_bottom_track_25.DFFR_5_.Q vssd1 vssd1 vccd1 vccd1 _0256_ sky130_fd_sc_hd__inv_2
XANTENNA_5 pReset vssd1 vssd1 vccd1 vccd1 sky130_fd_sc_hd__diode_2
XTAP_359 vssd1 vccd1 sky130_fd_sc_hd__tapvpwrvgnd_1
XFILLER_13_3 vssd1 vssd1 vccd1 vccd1 sky130_fd_sc_hd__fill_2
X_1004_ net56 vssd1 vssd1 vccd1 vccd1 net91 sky130_fd_sc_hd__clkbuf_1
XFILLER_34_197 vssd1 vssd1 vccd1 vccd1 sky130_ef_sc_hd__decap_12
X_0719_ mux_left_track_15.mux_2level_tapbuf_basis_input2_mem1_1_out vssd1 vssd1 vccd1
+ vccd1 mux_left_track_15.out sky130_fd_sc_hd__inv_2
XFILLER_25_153 vssd1 vssd1 vccd1 vccd1 sky130_fd_sc_hd__decap_4
XFILLER_40_112 vssd1 vssd1 vccd1 vccd1 sky130_fd_sc_hd__decap_8
XFILLER_21_381 vssd1 vssd1 vccd1 vccd1 sky130_fd_sc_hd__decap_8
XFILLER_13_337 vssd1 vssd1 vccd1 vccd1 sky130_ef_sc_hd__decap_12
XFILLER_15_54 vssd1 vssd1 vccd1 vccd1 sky130_fd_sc_hd__fill_2
XFILLER_31_64 vssd1 vssd1 vccd1 vccd1 sky130_fd_sc_hd__decap_4
XFILLER_0_230 vssd1 vssd1 vccd1 vccd1 sky130_fd_sc_hd__decap_4
Xoutput97 net97 vssd1 vssd1 vccd1 vccd1 chanx_left_out[4] sky130_fd_sc_hd__buf_2
XFILLER_56_83 vssd1 vssd1 vccd1 vccd1 sky130_fd_sc_hd__fill_1
XFILLER_48_245 vssd1 vssd1 vccd1 vccd1 sky130_fd_sc_hd__decap_6
XFILLER_0_274 vssd1 vssd1 vccd1 vccd1 sky130_fd_sc_hd__decap_6
Xoutput86 net86 vssd1 vssd1 vccd1 vccd1 chanx_left_out[10] sky130_fd_sc_hd__buf_2
XFILLER_31_167 vssd1 vssd1 vccd1 vccd1 sky130_fd_sc_hd__fill_1
XFILLER_16_197 vssd1 vssd1 vccd1 vccd1 sky130_fd_sc_hd__fill_2
XFILLER_8_363 vssd1 vssd1 vccd1 vccd1 sky130_fd_sc_hd__fill_1
XFILLER_39_223 vssd1 vssd1 vccd1 vccd1 sky130_fd_sc_hd__fill_1
X_0435_ _0142_ vssd1 vssd1 vccd1 vccd1 _0333_ sky130_fd_sc_hd__clkbuf_1
XTAP_156 vssd1 vccd1 sky130_fd_sc_hd__tapvpwrvgnd_1
XTAP_145 vssd1 vccd1 sky130_fd_sc_hd__tapvpwrvgnd_1
XTAP_134 vssd1 vccd1 sky130_fd_sc_hd__tapvpwrvgnd_1
X_0504_ mem_left_track_1.DFFR_1_.Q vssd1 vssd1 vccd1 vccd1 _0279_ sky130_fd_sc_hd__inv_2
XTAP_167 vssd1 vccd1 sky130_fd_sc_hd__tapvpwrvgnd_1
XTAP_178 vssd1 vccd1 sky130_fd_sc_hd__tapvpwrvgnd_1
XTAP_189 vssd1 vccd1 sky130_fd_sc_hd__tapvpwrvgnd_1
XFILLER_39_256 vssd1 vssd1 vccd1 vccd1 sky130_ef_sc_hd__decap_12
XFILLER_22_145 vssd1 vssd1 vccd1 vccd1 sky130_fd_sc_hd__fill_1
XFILLER_53_281 vssd1 vssd1 vccd1 vccd1 sky130_ef_sc_hd__decap_12
XFILLER_45_237 vssd1 vssd1 vccd1 vccd1 sky130_ef_sc_hd__decap_12
XFILLER_26_42 vssd1 vssd1 vccd1 vccd1 sky130_fd_sc_hd__decap_4
XFILLER_42_85 vssd1 vssd1 vccd1 vccd1 sky130_fd_sc_hd__decap_6
XFILLER_42_41 vssd1 vssd1 vccd1 vccd1 sky130_fd_sc_hd__decap_4
XFILLER_9_138 vssd1 vssd1 vccd1 vccd1 sky130_fd_sc_hd__decap_4
XFILLER_3_57 vssd1 vssd1 vccd1 vccd1 sky130_fd_sc_hd__decap_3
XFILLER_8_193 vssd1 vssd1 vccd1 vccd1 sky130_fd_sc_hd__decap_3
XFILLER_59_329 vssd1 vssd1 vccd1 vccd1 sky130_fd_sc_hd__decap_6
X_1252__164 vssd1 vssd1 vccd1 vccd1 net164 _1252__164/LO sky130_fd_sc_hd__conb_1
X_0418_ _0136_ vssd1 vssd1 vccd1 vccd1 _0346_ sky130_fd_sc_hd__clkbuf_1
XFILLER_50_251 vssd1 vssd1 vccd1 vccd1 sky130_fd_sc_hd__fill_1
XFILLER_35_281 vssd1 vssd1 vccd1 vccd1 sky130_ef_sc_hd__decap_12
XFILLER_12_99 vssd1 vssd1 vccd1 vccd1 sky130_fd_sc_hd__decap_4
XFILLER_37_85 vssd1 vssd1 vccd1 vccd1 sky130_fd_sc_hd__decap_4
XFILLER_53_95 vssd1 vssd1 vccd1 vccd1 sky130_ef_sc_hd__decap_12
XFILLER_53_51 vssd1 vssd1 vccd1 vccd1 sky130_fd_sc_hd__decap_4
XFILLER_5_196 vssd1 vssd1 vccd1 vccd1 sky130_fd_sc_hd__decap_4
Xclkbuf_4_6_0_prog_clk clknet_0_prog_clk vssd1 vssd1 vccd1 vccd1 clknet_4_6_0_prog_clk
+ sky130_fd_sc_hd__clkbuf_8
X_1252_ net164 _0353_ vssd1 vssd1 vccd1 vccd1 mux_left_track_17.mux_2level_tapbuf_basis_input2_mem1_1_out
+ sky130_fd_sc_hd__ebufn_2
XFILLER_64_365 vssd1 vssd1 vccd1 vccd1 sky130_fd_sc_hd__fill_2
XFILLER_64_343 vssd1 vssd1 vccd1 vccd1 sky130_fd_sc_hd__decap_4
XFILLER_32_240 vssd1 vssd1 vccd1 vccd1 sky130_fd_sc_hd__fill_1
XFILLER_17_281 vssd1 vssd1 vccd1 vccd1 sky130_ef_sc_hd__decap_12
X_1183_ mux_left_track_1.INVTX1_3_.out _0284_ vssd1 vssd1 vccd1 vccd1 mux_left_track_1.mux_2level_tapbuf_basis_input2_mem2_0_out
+ sky130_fd_sc_hd__ebufn_1
XFILLER_32_295 vssd1 vssd1 vccd1 vccd1 sky130_ef_sc_hd__decap_12
X_0967_ clknet_4_4_0_prog_clk mem_left_track_11.DFFR_1_.Q _0072_ vssd1 vssd1 vccd1
+ vccd1 mem_left_track_13.DFFR_0_.Q sky130_fd_sc_hd__dfrtp_2
XFILLER_59_137 vssd1 vssd1 vccd1 vccd1 sky130_fd_sc_hd__decap_4
XFILLER_58_29 vssd1 vssd1 vccd1 vccd1 sky130_ef_sc_hd__decap_12
X_0898_ clknet_4_8_0_prog_clk mem_bottom_track_17.DFFR_6_.Q _0003_ vssd1 vssd1 vccd1
+ vccd1 mem_bottom_track_17.DFFR_7_.Q sky130_fd_sc_hd__dfrtp_1
XFILLER_23_98 vssd1 vssd1 vccd1 vccd1 sky130_fd_sc_hd__decap_8
XFILLER_2_166 vssd1 vssd1 vccd1 vccd1 sky130_fd_sc_hd__decap_4
XFILLER_64_83 vssd1 vssd1 vccd1 vccd1 sky130_fd_sc_hd__fill_1
XFILLER_61_335 vssd1 vssd1 vccd1 vccd1 sky130_fd_sc_hd__fill_1
XFILLER_46_365 vssd1 vssd1 vccd1 vccd1 sky130_ef_sc_hd__decap_12
XFILLER_46_321 vssd1 vssd1 vccd1 vccd1 sky130_ef_sc_hd__decap_12
XFILLER_0_14 vssd1 vssd1 vccd1 vccd1 sky130_fd_sc_hd__decap_8
X_0752_ _0119_ vssd1 vssd1 vccd1 vccd1 _0101_ sky130_fd_sc_hd__inv_2
X_0821_ _0125_ vssd1 vssd1 vccd1 vccd1 _0046_ sky130_fd_sc_hd__inv_2
XFILLER_14_284 vssd1 vssd1 vccd1 vccd1 sky130_ef_sc_hd__decap_12
X_0683_ net7 vssd1 vssd1 vccd1 vccd1 mux_bottom_track_33.INVTX1_2_.out sky130_fd_sc_hd__inv_2
XFILLER_43_3 vssd1 vssd1 vccd1 vccd1 sky130_fd_sc_hd__decap_8
XFILLER_49_181 vssd1 vssd1 vccd1 vccd1 sky130_ef_sc_hd__decap_12
X_1166_ mux_bottom_track_33.mux_2level_tapbuf_basis_input3_mem3_1_out _0267_ vssd1
+ vssd1 vccd1 vccd1 mux_bottom_track_33.mux_2level_tapbuf_basis_input3_mem3_3_out
+ sky130_fd_sc_hd__ebufn_4
X_1235_ mux_left_track_23.mux_2level_tapbuf_basis_input2_mem1_0_out _0336_ vssd1 vssd1
+ vccd1 vccd1 mux_left_track_23.mux_2level_tapbuf_basis_input2_mem1_2_out sky130_fd_sc_hd__ebufn_1
XFILLER_52_357 vssd1 vssd1 vccd1 vccd1 sky130_fd_sc_hd__decap_6
X_1097_ mux_bottom_track_1.INVTX1_5_.out _0198_ vssd1 vssd1 vccd1 vccd1 mux_bottom_track_1.mux_2level_tapbuf_basis_input4_mem4_1_out
+ sky130_fd_sc_hd__ebufn_4
XFILLER_20_287 vssd1 vssd1 vccd1 vccd1 sky130_ef_sc_hd__decap_12
XFILLER_20_265 vssd1 vssd1 vccd1 vccd1 sky130_fd_sc_hd__decap_6
XFILLER_20_243 vssd1 vssd1 vccd1 vccd1 sky130_fd_sc_hd__decap_3
XFILLER_43_335 vssd1 vssd1 vccd1 vccd1 sky130_fd_sc_hd__fill_1
XFILLER_34_20 vssd1 vssd1 vccd1 vccd1 sky130_fd_sc_hd__decap_8
XFILLER_28_365 vssd1 vssd1 vccd1 vccd1 sky130_ef_sc_hd__decap_12
XFILLER_28_321 vssd1 vssd1 vccd1 vccd1 sky130_ef_sc_hd__decap_12
XFILLER_18_98 vssd1 vssd1 vccd1 vccd1 sky130_fd_sc_hd__decap_4
XFILLER_50_41 vssd1 vssd1 vccd1 vccd1 sky130_ef_sc_hd__decap_12
XFILLER_7_225 vssd1 vssd1 vccd1 vccd1 sky130_fd_sc_hd__fill_2
XFILLER_11_221 vssd1 vssd1 vccd1 vccd1 sky130_fd_sc_hd__decap_3
XTAP_519 vssd1 vccd1 sky130_fd_sc_hd__tapvpwrvgnd_1
XTAP_508 vssd1 vccd1 sky130_fd_sc_hd__tapvpwrvgnd_1
XFILLER_50_85 vssd1 vssd1 vccd1 vccd1 sky130_fd_sc_hd__fill_2
XFILLER_50_63 vssd1 vssd1 vccd1 vccd1 sky130_ef_sc_hd__decap_12
XFILLER_7_258 vssd1 vssd1 vccd1 vccd1 sky130_fd_sc_hd__decap_4
X_1020_ net58 vssd1 vssd1 vccd1 vccd1 net112 sky130_fd_sc_hd__clkbuf_1
XFILLER_34_357 vssd1 vssd1 vccd1 vccd1 sky130_fd_sc_hd__decap_6
X_0735_ _0158_ vssd1 vssd1 vccd1 vccd1 _0086_ sky130_fd_sc_hd__inv_2
X_0804_ _0123_ vssd1 vssd1 vccd1 vccd1 _0031_ sky130_fd_sc_hd__inv_2
XFILLER_57_405 vssd1 vssd1 vccd1 vccd1 sky130_fd_sc_hd__fill_2
X_0597_ mem_top_track_24.DFFR_0_.Q vssd1 vssd1 vccd1 vccd1 _0193_ sky130_fd_sc_hd__inv_2
X_0666_ mux_top_track_32.mux_2level_tapbuf_basis_input3_mem3_3_out vssd1 vssd1 vccd1
+ vccd1 mux_top_track_32.out sky130_fd_sc_hd__inv_2
X_1149_ mux_left_track_9.INVTX1_1_.out _0250_ vssd1 vssd1 vccd1 vccd1 mux_top_track_32.mux_2level_tapbuf_basis_input3_mem3_0_out
+ sky130_fd_sc_hd__ebufn_2
XFILLER_25_335 vssd1 vssd1 vccd1 vccd1 sky130_fd_sc_hd__fill_1
X_1218_ mux_left_track_11.INVTX1_2_.out _0319_ vssd1 vssd1 vccd1 vccd1 mux_left_track_11.mux_2level_tapbuf_basis_input2_mem1_1_out
+ sky130_fd_sc_hd__ebufn_1
XFILLER_52_165 vssd1 vssd1 vccd1 vccd1 sky130_ef_sc_hd__decap_12
XFILLER_4_228 vssd1 vssd1 vccd1 vccd1 sky130_fd_sc_hd__decap_4
XFILLER_29_31 vssd1 vssd1 vccd1 vccd1 sky130_fd_sc_hd__fill_1
XFILLER_43_121 vssd1 vssd1 vccd1 vccd1 sky130_fd_sc_hd__fill_2
XFILLER_31_349 vssd1 vssd1 vccd1 vccd1 sky130_ef_sc_hd__decap_12
XFILLER_31_316 vssd1 vssd1 vccd1 vccd1 sky130_ef_sc_hd__decap_12
XFILLER_31_305 vssd1 vssd1 vccd1 vccd1 sky130_fd_sc_hd__decap_8
XFILLER_28_195 vssd1 vssd1 vccd1 vccd1 sky130_fd_sc_hd__fill_1
XFILLER_16_357 vssd1 vssd1 vccd1 vccd1 sky130_fd_sc_hd__decap_6
XANTENNA_6 net113 vssd1 vssd1 vccd1 vccd1 sky130_fd_sc_hd__diode_2
X_0451_ _0147_ vssd1 vssd1 vccd1 vccd1 _0323_ sky130_fd_sc_hd__clkbuf_1
XFILLER_39_405 vssd1 vssd1 vccd1 vccd1 sky130_fd_sc_hd__fill_2
X_0520_ mem_bottom_track_25.DFFR_1_.Q vssd1 vssd1 vccd1 vccd1 _0261_ sky130_fd_sc_hd__inv_2
XTAP_349 vssd1 vccd1 sky130_fd_sc_hd__tapvpwrvgnd_1
XTAP_338 vssd1 vccd1 sky130_fd_sc_hd__tapvpwrvgnd_1
XTAP_327 vssd1 vccd1 sky130_fd_sc_hd__tapvpwrvgnd_1
XTAP_316 vssd1 vccd1 sky130_fd_sc_hd__tapvpwrvgnd_1
XTAP_305 vssd1 vccd1 sky130_fd_sc_hd__tapvpwrvgnd_1
XFILLER_3_272 vssd1 vssd1 vccd1 vccd1 sky130_fd_sc_hd__decap_8
X_1003_ net52 vssd1 vssd1 vccd1 vccd1 net92 sky130_fd_sc_hd__clkbuf_2
X_0718_ net48 vssd1 vssd1 vccd1 vccd1 mux_left_track_13.INVTX1_1_.out sky130_fd_sc_hd__inv_2
X_0649_ net55 vssd1 vssd1 vccd1 vccd1 mux_bottom_track_9.INVTX1_2_.out sky130_fd_sc_hd__inv_2
XFILLER_57_279 vssd1 vssd1 vccd1 vccd1 sky130_fd_sc_hd__fill_1
XFILLER_13_305 vssd1 vssd1 vccd1 vccd1 sky130_ef_sc_hd__decap_12
XFILLER_13_349 vssd1 vssd1 vccd1 vccd1 sky130_ef_sc_hd__decap_12
XFILLER_40_146 vssd1 vssd1 vccd1 vccd1 sky130_fd_sc_hd__decap_4
XFILLER_21_393 vssd1 vssd1 vccd1 vccd1 sky130_ef_sc_hd__decap_12
Xoutput87 net87 vssd1 vssd1 vccd1 vccd1 chanx_left_out[11] sky130_fd_sc_hd__buf_2
Xoutput98 net98 vssd1 vssd1 vccd1 vccd1 chanx_left_out[5] sky130_fd_sc_hd__buf_2
XFILLER_0_253 vssd1 vssd1 vccd1 vccd1 sky130_fd_sc_hd__fill_2
XFILLER_0_286 vssd1 vssd1 vccd1 vccd1 sky130_fd_sc_hd__decap_8
XFILLER_31_135 vssd1 vssd1 vccd1 vccd1 sky130_fd_sc_hd__decap_6
XFILLER_31_113 vssd1 vssd1 vccd1 vccd1 sky130_fd_sc_hd__decap_6
XFILLER_39_268 vssd1 vssd1 vccd1 vccd1 sky130_ef_sc_hd__decap_12
X_0434_ mem_left_track_23.DFFR_1_.Q vssd1 vssd1 vccd1 vccd1 _0142_ sky130_fd_sc_hd__clkbuf_1
XTAP_157 vssd1 vccd1 sky130_fd_sc_hd__tapvpwrvgnd_1
XTAP_146 vssd1 vccd1 sky130_fd_sc_hd__tapvpwrvgnd_1
XTAP_135 vssd1 vccd1 sky130_fd_sc_hd__tapvpwrvgnd_1
XTAP_168 vssd1 vccd1 sky130_fd_sc_hd__tapvpwrvgnd_1
XTAP_179 vssd1 vccd1 sky130_fd_sc_hd__tapvpwrvgnd_1
X_0503_ mem_left_track_1.DFFR_0_.Q vssd1 vssd1 vccd1 vccd1 _0284_ sky130_fd_sc_hd__inv_2
XFILLER_54_227 vssd1 vssd1 vccd1 vccd1 sky130_ef_sc_hd__decap_12
XFILLER_22_168 vssd1 vssd1 vccd1 vccd1 sky130_fd_sc_hd__decap_8
XFILLER_22_135 vssd1 vssd1 vccd1 vccd1 sky130_fd_sc_hd__decap_4
XFILLER_45_249 vssd1 vssd1 vccd1 vccd1 sky130_ef_sc_hd__decap_12
XFILLER_45_205 vssd1 vssd1 vccd1 vccd1 sky130_ef_sc_hd__decap_12
XFILLER_53_293 vssd1 vssd1 vccd1 vccd1 sky130_fd_sc_hd__decap_6
XFILLER_26_98 vssd1 vssd1 vccd1 vccd1 sky130_fd_sc_hd__decap_4
XFILLER_9_106 vssd1 vssd1 vccd1 vccd1 sky130_fd_sc_hd__decap_6
XFILLER_13_113 vssd1 vssd1 vccd1 vccd1 sky130_fd_sc_hd__decap_4
XFILLER_36_227 vssd1 vssd1 vccd1 vccd1 sky130_ef_sc_hd__decap_12
XFILLER_8_183 vssd1 vssd1 vccd1 vccd1 sky130_fd_sc_hd__fill_1
XFILLER_27_205 vssd1 vssd1 vccd1 vccd1 sky130_fd_sc_hd__fill_1
X_0417_ mem_left_track_13.DFFR_0_.Q vssd1 vssd1 vccd1 vccd1 _0136_ sky130_fd_sc_hd__clkbuf_1
XFILLER_35_293 vssd1 vssd1 vccd1 vccd1 sky130_ef_sc_hd__decap_12
XFILLER_6_109 vssd1 vssd1 vccd1 vccd1 sky130_fd_sc_hd__fill_1
XFILLER_58_363 vssd1 vssd1 vccd1 vccd1 sky130_fd_sc_hd__fill_1
XFILLER_37_42 vssd1 vssd1 vccd1 vccd1 sky130_fd_sc_hd__fill_1
XFILLER_18_205 vssd1 vssd1 vccd1 vccd1 sky130_fd_sc_hd__decap_4
XFILLER_26_293 vssd1 vssd1 vccd1 vccd1 sky130_ef_sc_hd__decap_12
XFILLER_45_7 vssd1 vssd1 vccd1 vccd1 sky130_fd_sc_hd__fill_1
XFILLER_64_322 vssd1 vssd1 vccd1 vccd1 sky130_fd_sc_hd__fill_2
XFILLER_49_352 vssd1 vssd1 vccd1 vccd1 sky130_ef_sc_hd__decap_12
X_1251_ mux_bottom_track_17.INVTX1_1_.out _0352_ vssd1 vssd1 vccd1 vccd1 mux_left_track_15.mux_2level_tapbuf_basis_input2_mem1_0_out
+ sky130_fd_sc_hd__ebufn_1
X_1182_ mux_left_track_1.INVTX1_2_.out _0283_ vssd1 vssd1 vccd1 vccd1 mux_left_track_1.mux_2level_tapbuf_basis_input3_mem3_0_out
+ sky130_fd_sc_hd__ebufn_2
XFILLER_64_377 vssd1 vssd1 vccd1 vccd1 sky130_fd_sc_hd__decap_4
XFILLER_24_208 vssd1 vssd1 vccd1 vccd1 sky130_fd_sc_hd__decap_8
XFILLER_17_260 vssd1 vssd1 vccd1 vccd1 sky130_fd_sc_hd__decap_4
XFILLER_17_293 vssd1 vssd1 vccd1 vccd1 sky130_ef_sc_hd__decap_12
X_0897_ clknet_4_5_0_prog_clk mem_bottom_track_1.DFFR_7_.Q _0002_ vssd1 vssd1 vccd1
+ vccd1 mem_bottom_track_9.DFFR_0_.Q sky130_fd_sc_hd__dfrtp_2
X_0966_ clknet_4_9_0_prog_clk mem_left_track_13.DFFR_0_.Q _0071_ vssd1 vssd1 vccd1
+ vccd1 mem_left_track_13.DFFR_1_.Q sky130_fd_sc_hd__dfrtp_2
XFILLER_59_105 vssd1 vssd1 vccd1 vccd1 sky130_fd_sc_hd__decap_6
XFILLER_15_219 vssd1 vssd1 vccd1 vccd1 sky130_fd_sc_hd__decap_4
XFILLER_23_252 vssd1 vssd1 vccd1 vccd1 sky130_ef_sc_hd__decap_12
XFILLER_23_230 vssd1 vssd1 vccd1 vccd1 sky130_ef_sc_hd__decap_12
XFILLER_23_55 vssd1 vssd1 vccd1 vccd1 sky130_fd_sc_hd__fill_1
XFILLER_3_3 vssd1 vssd1 vccd1 vccd1 sky130_fd_sc_hd__fill_2
XFILLER_2_123 vssd1 vssd1 vccd1 vccd1 sky130_fd_sc_hd__decap_4
XFILLER_48_85 vssd1 vssd1 vccd1 vccd1 sky130_ef_sc_hd__decap_12
XFILLER_48_41 vssd1 vssd1 vccd1 vccd1 sky130_ef_sc_hd__decap_12
XFILLER_46_333 vssd1 vssd1 vccd1 vccd1 sky130_ef_sc_hd__decap_12
XFILLER_2_189 vssd1 vssd1 vccd1 vccd1 sky130_fd_sc_hd__decap_6
XFILLER_0_26 vssd1 vssd1 vccd1 vccd1 sky130_fd_sc_hd__fill_2
XFILLER_64_62 vssd1 vssd1 vccd1 vccd1 sky130_fd_sc_hd__decap_8
XFILLER_46_377 vssd1 vssd1 vccd1 vccd1 sky130_ef_sc_hd__decap_12
X_0820_ _0125_ vssd1 vssd1 vccd1 vccd1 _0045_ sky130_fd_sc_hd__inv_2
XFILLER_9_57 vssd1 vssd1 vccd1 vccd1 sky130_fd_sc_hd__fill_2
X_0751_ _0156_ vssd1 vssd1 vccd1 vccd1 _0119_ sky130_fd_sc_hd__buf_4
XFILLER_14_296 vssd1 vssd1 vccd1 vccd1 sky130_ef_sc_hd__decap_12
X_0682_ net2 vssd1 vssd1 vccd1 vccd1 mux_bottom_track_33.INVTX1_3_.out sky130_fd_sc_hd__inv_2
XFILLER_36_3 vssd1 vssd1 vccd1 vccd1 sky130_fd_sc_hd__fill_2
XFILLER_64_141 vssd1 vssd1 vccd1 vccd1 sky130_fd_sc_hd__fill_2
XFILLER_49_193 vssd1 vssd1 vccd1 vccd1 sky130_ef_sc_hd__decap_12
X_1165_ mux_bottom_track_25.INVTX1_0_.out _0266_ vssd1 vssd1 vccd1 vccd1 mux_bottom_track_25.mux_2level_tapbuf_basis_input3_mem3_0_out
+ sky130_fd_sc_hd__ebufn_2
X_1234_ mux_left_track_23.INVTX1_1_.out _0335_ vssd1 vssd1 vccd1 vccd1 mux_left_track_23.mux_2level_tapbuf_basis_input2_mem1_0_out
+ sky130_fd_sc_hd__ebufn_1
X_1096_ net145 _0197_ vssd1 vssd1 vccd1 vccd1 mux_bottom_track_1.mux_2level_tapbuf_basis_input4_mem4_2_out
+ sky130_fd_sc_hd__ebufn_2
X_0949_ clknet_4_11_0_prog_clk mem_left_track_7.DFFR_3_.Q _0054_ vssd1 vssd1 vccd1
+ vccd1 mem_left_track_7.DFFR_4_.Q sky130_fd_sc_hd__dfrtp_1
XFILLER_20_299 vssd1 vssd1 vccd1 vccd1 sky130_fd_sc_hd__decap_8
XFILLER_28_333 vssd1 vssd1 vccd1 vccd1 sky130_ef_sc_hd__decap_12
XFILLER_28_377 vssd1 vssd1 vccd1 vccd1 sky130_ef_sc_hd__decap_12
XFILLER_51_391 vssd1 vssd1 vccd1 vccd1 sky130_fd_sc_hd__fill_1
XFILLER_50_75 vssd1 vssd1 vccd1 vccd1 sky130_fd_sc_hd__decap_8
XFILLER_50_53 vssd1 vssd1 vccd1 vccd1 sky130_fd_sc_hd__decap_6
XFILLER_7_237 vssd1 vssd1 vccd1 vccd1 sky130_fd_sc_hd__decap_4
XFILLER_59_51 vssd1 vssd1 vccd1 vccd1 sky130_fd_sc_hd__decap_4
XTAP_509 vssd1 vccd1 sky130_fd_sc_hd__tapvpwrvgnd_1
XFILLER_46_141 vssd1 vssd1 vccd1 vccd1 sky130_fd_sc_hd__fill_2