*SPEF "ieee 1481-1999"
*DESIGN "cbx_1__4_"
*DATE "11:11:11 Fri 11 11, 1111"
*VENDOR "OpenRCX"
*PROGRAM "Parallel Extraction"
*VERSION "1.0"
*DESIGN_FLOW "NAME_SCOPE LOCAL" "PIN_CAP NONE"
*DIVIDER /
*DELIMITER :
*BUS_DELIMITER []
*T_UNIT 1 NS
*C_UNIT 1 PF
*R_UNIT 1 OHM
*L_UNIT 1 HENRY

*NAME_MAP
*1 bottom_grid_top_width_0_height_0_subtile_0__pin_I_0_
*2 bottom_grid_top_width_0_height_0_subtile_0__pin_I_4_
*3 bottom_grid_top_width_0_height_0_subtile_0__pin_I_8_
*4 bottom_grid_top_width_0_height_0_subtile_0__pin_clk_0_
*5 ccff_head
*6 ccff_tail
*7 chanx_left_in[0]
*8 chanx_left_in[10]
*9 chanx_left_in[11]
*10 chanx_left_in[12]
*11 chanx_left_in[13]
*12 chanx_left_in[14]
*13 chanx_left_in[15]
*14 chanx_left_in[16]
*15 chanx_left_in[17]
*16 chanx_left_in[18]
*17 chanx_left_in[1]
*18 chanx_left_in[2]
*19 chanx_left_in[3]
*20 chanx_left_in[4]
*21 chanx_left_in[5]
*22 chanx_left_in[6]
*23 chanx_left_in[7]
*24 chanx_left_in[8]
*25 chanx_left_in[9]
*26 chanx_left_out[0]
*27 chanx_left_out[10]
*28 chanx_left_out[11]
*29 chanx_left_out[12]
*30 chanx_left_out[13]
*31 chanx_left_out[14]
*32 chanx_left_out[15]
*33 chanx_left_out[16]
*34 chanx_left_out[17]
*35 chanx_left_out[18]
*36 chanx_left_out[1]
*37 chanx_left_out[2]
*38 chanx_left_out[3]
*39 chanx_left_out[4]
*40 chanx_left_out[5]
*41 chanx_left_out[6]
*42 chanx_left_out[7]
*43 chanx_left_out[8]
*44 chanx_left_out[9]
*45 chanx_right_in[0]
*46 chanx_right_in[10]
*47 chanx_right_in[11]
*48 chanx_right_in[12]
*49 chanx_right_in[13]
*50 chanx_right_in[14]
*51 chanx_right_in[15]
*52 chanx_right_in[16]
*53 chanx_right_in[17]
*54 chanx_right_in[18]
*55 chanx_right_in[1]
*56 chanx_right_in[2]
*57 chanx_right_in[3]
*58 chanx_right_in[4]
*59 chanx_right_in[5]
*60 chanx_right_in[6]
*61 chanx_right_in[7]
*62 chanx_right_in[8]
*63 chanx_right_in[9]
*64 chanx_right_out[0]
*65 chanx_right_out[10]
*66 chanx_right_out[11]
*67 chanx_right_out[12]
*68 chanx_right_out[13]
*69 chanx_right_out[14]
*70 chanx_right_out[15]
*71 chanx_right_out[16]
*72 chanx_right_out[17]
*73 chanx_right_out[18]
*74 chanx_right_out[1]
*75 chanx_right_out[2]
*76 chanx_right_out[3]
*77 chanx_right_out[4]
*78 chanx_right_out[5]
*79 chanx_right_out[6]
*80 chanx_right_out[7]
*81 chanx_right_out[8]
*82 chanx_right_out[9]
*83 pReset
*84 prog_clk
*85 top_grid_bottom_width_0_height_0_subtile_0__pin_outpad_0_
*86 top_grid_bottom_width_0_height_0_subtile_1__pin_outpad_0_
*87 top_grid_bottom_width_0_height_0_subtile_2__pin_outpad_0_
*88 top_grid_bottom_width_0_height_0_subtile_3__pin_outpad_0_
*89 top_grid_bottom_width_0_height_0_subtile_4__pin_outpad_0_
*90 top_grid_bottom_width_0_height_0_subtile_5__pin_outpad_0_
*91 top_grid_bottom_width_0_height_0_subtile_6__pin_outpad_0_
*92 top_grid_bottom_width_0_height_0_subtile_7__pin_outpad_0_
*95 _000_
*96 _001_
*97 _002_
*98 _003_
*99 _004_
*100 _005_
*101 _006_
*102 _007_
*103 _008_
*104 _009_
*105 _010_
*106 _011_
*107 _012_
*108 _013_
*109 _014_
*110 _015_
*111 _016_
*112 _017_
*113 _018_
*114 _019_
*115 _020_
*116 _021_
*117 _022_
*118 _023_
*119 _024_
*120 _025_
*121 _026_
*122 _027_
*123 _028_
*124 _029_
*125 _030_
*126 _031_
*127 _032_
*128 _033_
*129 _034_
*130 _035_
*131 _036_
*132 _037_
*133 _038_
*134 _039_
*135 _040_
*136 _041_
*137 _042_
*138 _043_
*139 _044_
*140 _045_
*141 _046_
*142 _047_
*143 _048_
*144 _049_
*145 _050_
*146 _051_
*147 _052_
*148 _053_
*149 _054_
*150 _055_
*151 _056_
*152 _057_
*153 _058_
*154 _059_
*155 _060_
*156 _061_
*157 _062_
*158 _063_
*159 _064_
*160 _065_
*161 _066_
*162 _067_
*163 _068_
*164 _069_
*165 _070_
*166 _071_
*167 _072_
*168 _073_
*169 _074_
*170 _075_
*171 _076_
*172 _077_
*173 _078_
*174 _079_
*175 _080_
*176 _081_
*177 _082_
*178 _083_
*179 _084_
*180 _085_
*181 _086_
*182 _087_
*183 _088_
*184 _089_
*185 _090_
*186 _091_
*187 _092_
*188 _093_
*189 _094_
*190 _095_
*191 _096_
*192 _097_
*193 _098_
*194 _099_
*195 _100_
*196 _101_
*197 _102_
*198 _103_
*199 _104_
*200 _105_
*201 _106_
*202 _107_
*203 _108_
*204 _109_
*205 _110_
*206 _111_
*207 _112_
*208 _113_
*209 _114_
*210 _115_
*211 _116_
*212 _117_
*213 _118_
*214 _119_
*215 _120_
*216 _121_
*217 _122_
*218 _123_
*219 _124_
*220 _125_
*221 _126_
*222 _127_
*223 _128_
*224 _129_
*225 _130_
*226 _131_
*227 _132_
*228 _133_
*229 _134_
*230 _135_
*231 _136_
*232 _137_
*233 _138_
*234 _139_
*235 _140_
*236 _141_
*237 _142_
*238 _143_
*239 _144_
*240 _145_
*241 _146_
*242 _147_
*243 _148_
*244 _149_
*245 _150_
*246 _151_
*247 _152_
*248 _153_
*249 _154_
*250 _155_
*251 _156_
*252 _157_
*253 _158_
*254 _159_
*255 _160_
*256 _161_
*257 _162_
*258 _163_
*259 _164_
*260 _165_
*261 _166_
*262 _167_
*263 _168_
*264 _169_
*265 _170_
*266 _171_
*267 _172_
*268 _173_
*269 _174_
*270 _175_
*271 _176_
*272 _177_
*273 _178_
*274 _179_
*275 _180_
*276 _181_
*277 _182_
*278 _183_
*279 _184_
*280 _185_
*281 _186_
*282 _187_
*283 _188_
*284 _189_
*285 _190_
*286 _191_
*287 _192_
*288 _193_
*289 _194_
*290 _195_
*291 _196_
*292 _197_
*293 _198_
*294 _199_
*295 _200_
*296 _201_
*297 _202_
*298 _203_
*299 _204_
*300 _205_
*301 _206_
*302 _207_
*303 _208_
*304 _209_
*305 _210_
*306 _211_
*307 _212_
*308 _213_
*309 _214_
*310 _215_
*311 _216_
*312 _217_
*313 _218_
*314 _219_
*315 _220_
*316 _221_
*317 _222_
*318 _223_
*319 clknet_0_prog_clk
*320 clknet_3_0__leaf_prog_clk
*321 clknet_3_1__leaf_prog_clk
*322 clknet_3_2__leaf_prog_clk
*323 clknet_3_3__leaf_prog_clk
*324 clknet_3_4__leaf_prog_clk
*325 clknet_3_5__leaf_prog_clk
*326 clknet_3_6__leaf_prog_clk
*327 clknet_3_7__leaf_prog_clk
*328 mem_bottom_ipin_0\.DFFR_0_\.Q
*329 mem_bottom_ipin_0\.DFFR_1_\.Q
*330 mem_bottom_ipin_0\.DFFR_2_\.Q
*331 mem_bottom_ipin_0\.DFFR_3_\.Q
*332 mem_bottom_ipin_0\.DFFR_4_\.Q
*333 mem_bottom_ipin_0\.DFFR_5_\.Q
*334 mem_bottom_ipin_1\.DFFR_0_\.Q
*335 mem_bottom_ipin_1\.DFFR_1_\.Q
*336 mem_bottom_ipin_1\.DFFR_2_\.Q
*337 mem_bottom_ipin_1\.DFFR_3_\.Q
*338 mem_bottom_ipin_1\.DFFR_4_\.Q
*339 mem_bottom_ipin_1\.DFFR_5_\.Q
*340 mem_bottom_ipin_2\.DFFR_0_\.Q
*341 mem_bottom_ipin_2\.DFFR_1_\.Q
*342 mem_bottom_ipin_2\.DFFR_2_\.Q
*343 mem_bottom_ipin_2\.DFFR_3_\.Q
*344 mem_bottom_ipin_2\.DFFR_4_\.Q
*345 mem_bottom_ipin_2\.DFFR_5_\.Q
*346 mem_bottom_ipin_3\.DFFR_0_\.Q
*347 mem_bottom_ipin_3\.DFFR_1_\.Q
*348 mem_bottom_ipin_3\.DFFR_2_\.Q
*349 mem_bottom_ipin_3\.DFFR_3_\.Q
*350 mem_bottom_ipin_3\.DFFR_4_\.Q
*351 mem_bottom_ipin_3\.DFFR_5_\.Q
*352 mem_bottom_ipin_4\.DFFR_0_\.Q
*353 mem_bottom_ipin_4\.DFFR_1_\.Q
*354 mem_bottom_ipin_4\.DFFR_2_\.Q
*355 mem_bottom_ipin_4\.DFFR_3_\.Q
*356 mem_bottom_ipin_4\.DFFR_4_\.Q
*357 mem_bottom_ipin_4\.DFFR_5_\.Q
*358 mem_bottom_ipin_5\.DFFR_0_\.Q
*359 mem_bottom_ipin_5\.DFFR_1_\.Q
*360 mem_bottom_ipin_5\.DFFR_2_\.Q
*361 mem_bottom_ipin_5\.DFFR_3_\.Q
*362 mem_bottom_ipin_5\.DFFR_4_\.Q
*363 mem_bottom_ipin_5\.DFFR_5_\.Q
*364 mem_bottom_ipin_6\.DFFR_0_\.Q
*365 mem_bottom_ipin_6\.DFFR_1_\.Q
*366 mem_bottom_ipin_6\.DFFR_2_\.Q
*367 mem_bottom_ipin_6\.DFFR_3_\.Q
*368 mem_bottom_ipin_6\.DFFR_4_\.Q
*369 mem_bottom_ipin_6\.DFFR_5_\.Q
*370 mem_bottom_ipin_7\.DFFR_0_\.Q
*371 mem_bottom_ipin_7\.DFFR_1_\.Q
*372 mem_bottom_ipin_7\.DFFR_2_\.Q
*373 mem_bottom_ipin_7\.DFFR_3_\.Q
*374 mem_bottom_ipin_7\.DFFR_4_\.Q
*375 mem_bottom_ipin_7\.DFFR_5_\.Q
*376 mem_top_ipin_0\.DFFR_0_\.Q
*377 mem_top_ipin_0\.DFFR_1_\.Q
*378 mem_top_ipin_0\.DFFR_2_\.Q
*379 mem_top_ipin_0\.DFFR_3_\.Q
*380 mem_top_ipin_0\.DFFR_4_\.Q
*381 mem_top_ipin_0\.DFFR_5_\.Q
*382 mem_top_ipin_1\.DFFR_0_\.Q
*383 mem_top_ipin_1\.DFFR_1_\.Q
*384 mem_top_ipin_1\.DFFR_2_\.Q
*385 mem_top_ipin_1\.DFFR_3_\.Q
*386 mem_top_ipin_1\.DFFR_4_\.Q
*387 mem_top_ipin_1\.DFFR_5_\.Q
*388 mem_top_ipin_2\.DFFR_0_\.Q
*389 mem_top_ipin_2\.DFFR_1_\.Q
*390 mem_top_ipin_2\.DFFR_2_\.Q
*391 mem_top_ipin_2\.DFFR_3_\.Q
*392 mem_top_ipin_2\.DFFR_4_\.Q
*393 mem_top_ipin_2\.DFFR_5_\.Q
*394 mem_top_ipin_3\.DFFR_0_\.Q
*395 mem_top_ipin_3\.DFFR_1_\.Q
*396 mem_top_ipin_3\.DFFR_2_\.Q
*397 mem_top_ipin_3\.DFFR_3_\.Q
*398 mem_top_ipin_3\.DFFR_4_\.Q
*399 mux_bottom_ipin_0\.INVTX1_0_\.out
*400 mux_bottom_ipin_0\.INVTX1_1_\.out
*401 mux_bottom_ipin_0\.INVTX1_2_\.out
*402 mux_bottom_ipin_0\.INVTX1_3_\.out
*403 mux_bottom_ipin_0\.INVTX1_4_\.out
*404 mux_bottom_ipin_0\.INVTX1_5_\.out
*405 mux_bottom_ipin_0\.INVTX1_6_\.out
*406 mux_bottom_ipin_0\.INVTX1_7_\.out
*407 mux_bottom_ipin_0\.mux_2level_tapbuf_basis_input3_mem3_0_out
*408 mux_bottom_ipin_0\.mux_2level_tapbuf_basis_input3_mem3_1_out
*409 mux_bottom_ipin_0\.mux_2level_tapbuf_basis_input3_mem3_2_out
*410 mux_bottom_ipin_0\.mux_2level_tapbuf_basis_input3_mem3_3_out
*411 mux_bottom_ipin_1\.INVTX1_2_\.out
*412 mux_bottom_ipin_1\.INVTX1_3_\.out
*413 mux_bottom_ipin_1\.INVTX1_4_\.out
*414 mux_bottom_ipin_1\.INVTX1_5_\.out
*415 mux_bottom_ipin_1\.INVTX1_6_\.out
*416 mux_bottom_ipin_1\.INVTX1_7_\.out
*417 mux_bottom_ipin_1\.mux_2level_tapbuf_basis_input3_mem3_0_out
*418 mux_bottom_ipin_1\.mux_2level_tapbuf_basis_input3_mem3_1_out
*419 mux_bottom_ipin_1\.mux_2level_tapbuf_basis_input3_mem3_2_out
*420 mux_bottom_ipin_1\.mux_2level_tapbuf_basis_input3_mem3_3_out
*421 mux_bottom_ipin_2\.INVTX1_2_\.out
*422 mux_bottom_ipin_2\.INVTX1_3_\.out
*423 mux_bottom_ipin_2\.INVTX1_4_\.out
*424 mux_bottom_ipin_2\.INVTX1_5_\.out
*425 mux_bottom_ipin_2\.INVTX1_6_\.out
*426 mux_bottom_ipin_2\.INVTX1_7_\.out
*427 mux_bottom_ipin_2\.mux_2level_tapbuf_basis_input3_mem3_0_out
*428 mux_bottom_ipin_2\.mux_2level_tapbuf_basis_input3_mem3_1_out
*429 mux_bottom_ipin_2\.mux_2level_tapbuf_basis_input3_mem3_2_out
*430 mux_bottom_ipin_2\.mux_2level_tapbuf_basis_input3_mem3_3_out
*431 mux_bottom_ipin_3\.INVTX1_2_\.out
*432 mux_bottom_ipin_3\.INVTX1_3_\.out
*433 mux_bottom_ipin_3\.INVTX1_4_\.out
*434 mux_bottom_ipin_3\.INVTX1_5_\.out
*435 mux_bottom_ipin_3\.INVTX1_6_\.out
*436 mux_bottom_ipin_3\.INVTX1_7_\.out
*437 mux_bottom_ipin_3\.mux_2level_tapbuf_basis_input3_mem3_0_out
*438 mux_bottom_ipin_3\.mux_2level_tapbuf_basis_input3_mem3_1_out
*439 mux_bottom_ipin_3\.mux_2level_tapbuf_basis_input3_mem3_2_out
*440 mux_bottom_ipin_3\.mux_2level_tapbuf_basis_input3_mem3_3_out
*441 mux_bottom_ipin_4\.INVTX1_2_\.out
*442 mux_bottom_ipin_4\.INVTX1_3_\.out
*443 mux_bottom_ipin_4\.INVTX1_4_\.out
*444 mux_bottom_ipin_4\.INVTX1_5_\.out
*445 mux_bottom_ipin_4\.INVTX1_6_\.out
*446 mux_bottom_ipin_4\.INVTX1_7_\.out
*447 mux_bottom_ipin_4\.mux_2level_tapbuf_basis_input3_mem3_0_out
*448 mux_bottom_ipin_4\.mux_2level_tapbuf_basis_input3_mem3_1_out
*449 mux_bottom_ipin_4\.mux_2level_tapbuf_basis_input3_mem3_2_out
*450 mux_bottom_ipin_4\.mux_2level_tapbuf_basis_input3_mem3_3_out
*451 mux_bottom_ipin_5\.INVTX1_2_\.out
*452 mux_bottom_ipin_5\.INVTX1_3_\.out
*453 mux_bottom_ipin_5\.INVTX1_4_\.out
*454 mux_bottom_ipin_5\.INVTX1_5_\.out
*455 mux_bottom_ipin_5\.INVTX1_6_\.out
*456 mux_bottom_ipin_5\.INVTX1_7_\.out
*457 mux_bottom_ipin_5\.mux_2level_tapbuf_basis_input3_mem3_0_out
*458 mux_bottom_ipin_5\.mux_2level_tapbuf_basis_input3_mem3_1_out
*459 mux_bottom_ipin_5\.mux_2level_tapbuf_basis_input3_mem3_2_out
*460 mux_bottom_ipin_5\.mux_2level_tapbuf_basis_input3_mem3_3_out
*461 mux_bottom_ipin_6\.mux_2level_tapbuf_basis_input3_mem3_0_out
*462 mux_bottom_ipin_6\.mux_2level_tapbuf_basis_input3_mem3_1_out
*463 mux_bottom_ipin_6\.mux_2level_tapbuf_basis_input3_mem3_2_out
*464 mux_bottom_ipin_6\.mux_2level_tapbuf_basis_input3_mem3_3_out
*465 mux_bottom_ipin_7\.mux_2level_tapbuf_basis_input3_mem3_0_out
*466 mux_bottom_ipin_7\.mux_2level_tapbuf_basis_input3_mem3_1_out
*467 mux_bottom_ipin_7\.mux_2level_tapbuf_basis_input3_mem3_2_out
*468 mux_bottom_ipin_7\.mux_2level_tapbuf_basis_input3_mem3_3_out
*469 mux_top_ipin_0\.mux_2level_tapbuf_basis_input3_mem3_0_out
*470 mux_top_ipin_0\.mux_2level_tapbuf_basis_input3_mem3_1_out
*471 mux_top_ipin_0\.mux_2level_tapbuf_basis_input3_mem3_2_out
*472 mux_top_ipin_0\.mux_2level_tapbuf_basis_input3_mem3_3_out
*473 mux_top_ipin_1\.mux_2level_tapbuf_basis_input3_mem3_0_out
*474 mux_top_ipin_1\.mux_2level_tapbuf_basis_input3_mem3_1_out
*475 mux_top_ipin_1\.mux_2level_tapbuf_basis_input3_mem3_2_out
*476 mux_top_ipin_1\.mux_2level_tapbuf_basis_input3_mem3_3_out
*477 mux_top_ipin_2\.mux_2level_tapbuf_basis_input3_mem3_0_out
*478 mux_top_ipin_2\.mux_2level_tapbuf_basis_input3_mem3_1_out
*479 mux_top_ipin_2\.mux_2level_tapbuf_basis_input3_mem3_2_out
*480 mux_top_ipin_2\.mux_2level_tapbuf_basis_input3_mem3_3_out
*481 mux_top_ipin_3\.mux_2level_tapbuf_basis_input3_mem3_0_out
*482 mux_top_ipin_3\.mux_2level_tapbuf_basis_input3_mem3_1_out
*483 mux_top_ipin_3\.mux_2level_tapbuf_basis_input3_mem3_2_out
*484 mux_top_ipin_3\.mux_2level_tapbuf_basis_input3_mem3_3_out
*485 net1
*486 net10
*487 net100
*488 net101
*489 net102
*490 net103
*491 net11
*492 net12
*493 net13
*494 net14
*495 net15
*496 net16
*497 net17
*498 net18
*499 net19
*500 net2
*501 net20
*502 net21
*503 net22
*504 net23
*505 net24
*506 net25
*507 net26
*508 net27
*509 net28
*510 net29
*511 net3
*512 net30
*513 net31
*514 net32
*515 net33
*516 net34
*517 net35
*518 net36
*519 net37
*520 net38
*521 net39
*522 net4
*523 net40
*524 net41
*525 net42
*526 net43
*527 net44
*528 net45
*529 net46
*530 net47
*531 net48
*532 net49
*533 net5
*534 net50
*535 net51
*536 net52
*537 net53
*538 net54
*539 net55
*540 net56
*541 net57
*542 net58
*543 net59
*544 net6
*545 net60
*546 net61
*547 net62
*548 net63
*549 net64
*550 net65
*551 net66
*552 net67
*553 net68
*554 net69
*555 net7
*556 net70
*557 net71
*558 net72
*559 net73
*560 net74
*561 net75
*562 net76
*563 net77
*564 net78
*565 net79
*566 net8
*567 net80
*568 net81
*569 net82
*570 net83
*571 net84
*572 net85
*573 net86
*574 net87
*575 net88
*576 net89
*577 net9
*578 net90
*579 net91
*580 net92
*581 net93
*582 net94
*583 net95
*584 net96
*585 net97
*586 net98
*587 net99
*588 ANTENNA__262__A
*589 ANTENNA__265__A
*590 ANTENNA__266__A
*591 ANTENNA__270__A
*592 ANTENNA__274__A
*593 ANTENNA__275__A
*594 ANTENNA__276__A
*595 ANTENNA__278__A
*596 ANTENNA__279__A
*597 ANTENNA__280__A
*598 ANTENNA__282__A
*599 ANTENNA__283__A
*600 ANTENNA__284__A
*601 ANTENNA__286__A
*602 ANTENNA__287__A
*603 ANTENNA__289__A
*604 ANTENNA__290__A
*605 ANTENNA__291__A
*606 ANTENNA__293__A
*607 ANTENNA__294__A
*608 ANTENNA__295__A
*609 ANTENNA__298__A
*610 ANTENNA__299__A
*611 ANTENNA__300__A
*612 ANTENNA__302__A
*613 ANTENNA__303__A
*614 ANTENNA__304__A
*615 ANTENNA__306__A
*616 ANTENNA__307__A
*617 ANTENNA__308__A
*618 ANTENNA__322__A
*619 ANTENNA__324__A
*620 ANTENNA__326__A
*621 ANTENNA__328__A
*622 ANTENNA__330__A
*623 ANTENNA__332__A
*624 ANTENNA__333__A
*625 ANTENNA__334__A
*626 ANTENNA__335__A
*627 ANTENNA__338__A
*628 ANTENNA__339__A
*629 ANTENNA__342__A
*630 ANTENNA__343__A
*631 ANTENNA__345__A
*632 ANTENNA__346__A
*633 ANTENNA__348__A
*634 ANTENNA__349__A
*635 ANTENNA__350__A
*636 ANTENNA__352__A
*637 ANTENNA__354__A
*638 ANTENNA__356__A
*639 ANTENNA__358__A
*640 ANTENNA__359__A
*641 ANTENNA__362__A
*642 ANTENNA__363__A
*643 ANTENNA__366__A
*644 ANTENNA__367__A
*645 ANTENNA__370__A
*646 ANTENNA__372__A
*647 ANTENNA__374__A
*648 ANTENNA__376__A
*649 ANTENNA__378__A
*650 ANTENNA__380__A
*651 ANTENNA__384__A
*652 ANTENNA__388__A
*653 ANTENNA__391__A
*654 ANTENNA__394__A
*655 ANTENNA__396__A
*656 ANTENNA__398__A
*657 ANTENNA__399__A
*658 ANTENNA__400__A
*659 ANTENNA__401__A
*660 ANTENNA__402__A
*661 ANTENNA__403__A
*662 ANTENNA__404__A
*663 ANTENNA__405__A
*664 ANTENNA__406__A
*665 ANTENNA__408__A
*666 ANTENNA__409__A
*667 ANTENNA__410__A
*668 ANTENNA__411__A
*669 ANTENNA__412__A
*670 ANTENNA__413__A
*671 ANTENNA__414__A
*672 ANTENNA__415__A
*673 ANTENNA__416__A
*674 ANTENNA__417__A
*675 ANTENNA__418__A
*676 ANTENNA__419__A
*677 ANTENNA__423__A
*678 ANTENNA__424__A
*679 ANTENNA__425__A
*680 ANTENNA__426__A
*681 ANTENNA__427__A
*682 ANTENNA__428__A
*683 ANTENNA__429__A
*684 ANTENNA__430__A
*685 ANTENNA__432__A
*686 ANTENNA__436__A
*687 ANTENNA__437__A
*688 ANTENNA__438__A
*689 ANTENNA__439__A
*690 ANTENNA__440__A
*691 ANTENNA__444__A
*692 ANTENNA__445__A
*693 ANTENNA__446__A
*694 ANTENNA__448__A
*695 ANTENNA__449__A
*696 ANTENNA__451__A
*697 ANTENNA__454__A
*698 ANTENNA__490__A
*699 ANTENNA__491__A
*700 ANTENNA__492__A
*701 ANTENNA__493__A
*702 ANTENNA__494__A
*703 ANTENNA__495__A
*704 ANTENNA__496__A
*705 ANTENNA__497__A
*706 ANTENNA__498__A
*707 ANTENNA__499__A
*708 ANTENNA__512__D
*709 ANTENNA__513__D
*710 ANTENNA__514__D
*711 ANTENNA__515__D
*712 ANTENNA__518__D
*713 ANTENNA__525__D
*714 ANTENNA__526__D
*715 ANTENNA__529__RESET_B
*716 ANTENNA__530__D
*717 ANTENNA__532__D
*718 ANTENNA__535__D
*719 ANTENNA__537__D
*720 ANTENNA__537__RESET_B
*721 ANTENNA__538__D
*722 ANTENNA__541__D
*723 ANTENNA__542__D
*724 ANTENNA__544__D
*725 ANTENNA__545__D
*726 ANTENNA__549__D
*727 ANTENNA__550__D
*728 ANTENNA__560__D
*729 ANTENNA__561__D
*730 ANTENNA__562__D
*731 ANTENNA__564__D
*732 ANTENNA__566__D
*733 ANTENNA__568__D
*734 ANTENNA__572__D
*735 ANTENNA__573__D
*736 ANTENNA__574__D
*737 ANTENNA__575__D
*738 ANTENNA__576__RESET_B
*739 ANTENNA__578__RESET_B
*740 ANTENNA__580__D
*741 ANTENNA__580__RESET_B
*742 ANTENNA__594__A
*743 ANTENNA__595__A
*744 ANTENNA__598__A
*745 ANTENNA__600__A
*746 ANTENNA__601__A
*747 ANTENNA__602__A
*748 ANTENNA__603__A
*749 ANTENNA__604__A
*750 ANTENNA__605__A
*751 ANTENNA__606__A
*752 ANTENNA__607__A
*753 ANTENNA__608__A
*754 ANTENNA__609__A
*755 ANTENNA__610__A
*756 ANTENNA__611__A
*757 ANTENNA__612__A
*758 ANTENNA__615__A
*759 ANTENNA__616__A
*760 ANTENNA__618__A
*761 ANTENNA__619__A
*762 ANTENNA__620__A
*763 ANTENNA__621__A
*764 ANTENNA__623__A
*765 ANTENNA__624__A
*766 ANTENNA__625__A
*767 ANTENNA__627__A
*768 ANTENNA__629__A
*769 ANTENNA__630__A
*770 ANTENNA__631__A
*771 ANTENNA__672__A
*772 ANTENNA__693__A
*773 ANTENNA__744__A
*774 ANTENNA__759__A
*775 ANTENNA__765__A
*776 ANTENNA_clkbuf_0_prog_clk_A
*777 ANTENNA_clkbuf_3_0__f_prog_clk_A
*778 ANTENNA_clkbuf_3_1__f_prog_clk_A
*779 ANTENNA_clkbuf_3_2__f_prog_clk_A
*780 ANTENNA_clkbuf_3_3__f_prog_clk_A
*781 ANTENNA_clkbuf_3_4__f_prog_clk_A
*782 ANTENNA_clkbuf_3_5__f_prog_clk_A
*783 ANTENNA_clkbuf_3_6__f_prog_clk_A
*784 ANTENNA_clkbuf_3_7__f_prog_clk_A
*785 ANTENNA_input10_A
*786 ANTENNA_input11_A
*787 ANTENNA_input12_A
*788 ANTENNA_input13_A
*789 ANTENNA_input14_A
*790 ANTENNA_input15_A
*791 ANTENNA_input16_A
*792 ANTENNA_input17_A
*793 ANTENNA_input18_A
*794 ANTENNA_input19_A
*795 ANTENNA_input1_A
*796 ANTENNA_input20_A
*797 ANTENNA_input21_A
*798 ANTENNA_input22_A
*799 ANTENNA_input23_A
*800 ANTENNA_input24_A
*801 ANTENNA_input25_A
*802 ANTENNA_input26_A
*803 ANTENNA_input27_A
*804 ANTENNA_input28_A
*805 ANTENNA_input29_A
*806 ANTENNA_input2_A
*807 ANTENNA_input30_A
*808 ANTENNA_input31_A
*809 ANTENNA_input32_A
*810 ANTENNA_input33_A
*811 ANTENNA_input34_A
*812 ANTENNA_input35_A
*813 ANTENNA_input36_A
*814 ANTENNA_input37_A
*815 ANTENNA_input38_A
*816 ANTENNA_input39_A
*817 ANTENNA_input3_A
*818 ANTENNA_input40_A
*819 ANTENNA_input4_A
*820 ANTENNA_input5_A
*821 ANTENNA_input6_A
*822 ANTENNA_input7_A
*823 ANTENNA_input8_A
*824 ANTENNA_input9_A
*825 ANTENNA_output45_A
*826 ANTENNA_output52_A
*827 ANTENNA_output56_A
*828 ANTENNA_output57_A
*829 ANTENNA_output61_A
*830 ANTENNA_output63_A
*831 ANTENNA_output66_A
*832 ANTENNA_output71_A
*833 ANTENNA_output77_A
*834 ANTENNA_output78_A
*835 ANTENNA_output82_A
*836 ANTENNA_output86_A
*837 FILLER_0_102
*838 FILLER_0_110
*839 FILLER_0_113
*840 FILLER_0_117
*841 FILLER_0_138
*842 FILLER_0_141
*843 FILLER_0_145
*844 FILLER_0_16
*845 FILLER_0_166
*846 FILLER_0_169
*847 FILLER_0_173
*848 FILLER_0_194
*849 FILLER_0_197
*850 FILLER_0_222
*851 FILLER_0_225
*852 FILLER_0_247
*853 FILLER_0_251
*854 FILLER_0_253
*855 FILLER_0_26
*856 FILLER_0_275
*857 FILLER_0_279
*858 FILLER_0_281
*859 FILLER_0_29
*860 FILLER_0_3
*861 FILLER_0_303
*862 FILLER_0_307
*863 FILLER_0_309
*864 FILLER_0_321
*865 FILLER_0_329
*866 FILLER_0_335
*867 FILLER_0_337
*868 FILLER_0_34
*869 FILLER_0_341
*870 FILLER_0_345
*871 FILLER_0_356
*872 FILLER_0_362
*873 FILLER_0_365
*874 FILLER_0_371
*875 FILLER_0_379
*876 FILLER_0_384
*877 FILLER_0_42
*878 FILLER_0_48
*879 FILLER_0_57
*880 FILLER_0_63
*881 FILLER_0_69
*882 FILLER_0_77
*883 FILLER_0_83
*884 FILLER_0_85
*885 FILLER_0_89
*886 FILLER_0_9
*887 FILLER_0_94
*888 FILLER_10_102
*889 FILLER_10_109
*890 FILLER_10_117
*891 FILLER_10_138
*892 FILLER_10_141
*893 FILLER_10_146
*894 FILLER_10_175
*895 FILLER_10_184
*896 FILLER_10_19
*897 FILLER_10_191
*898 FILLER_10_195
*899 FILLER_10_197
*900 FILLER_10_222
*901 FILLER_10_246
*902 FILLER_10_253
*903 FILLER_10_27
*904 FILLER_10_276
*905 FILLER_10_284
*906 FILLER_10_288
*907 FILLER_10_29
*908 FILLER_10_294
*909 FILLER_10_298
*910 FILLER_10_3
*911 FILLER_10_305
*912 FILLER_10_309
*913 FILLER_10_318
*914 FILLER_10_330
*915 FILLER_10_342
*916 FILLER_10_354
*917 FILLER_10_362
*918 FILLER_10_365
*919 FILLER_10_377
*920 FILLER_10_385
*921 FILLER_10_41
*922 FILLER_10_53
*923 FILLER_10_60
*924 FILLER_10_66
*925 FILLER_10_7
*926 FILLER_10_78
*927 FILLER_10_85
*928 FILLER_10_97
*929 FILLER_11_107
*930 FILLER_11_111
*931 FILLER_11_113
*932 FILLER_11_120
*933 FILLER_11_128
*934 FILLER_11_134
*935 FILLER_11_141
*936 FILLER_11_166
*937 FILLER_11_169
*938 FILLER_11_173
*939 FILLER_11_180
*940 FILLER_11_207
*941 FILLER_11_21
*942 FILLER_11_214
*943 FILLER_11_220
*944 FILLER_11_225
*945 FILLER_11_231
*946 FILLER_11_260
*947 FILLER_11_266
*948 FILLER_11_274
*949 FILLER_11_281
*950 FILLER_11_287
*951 FILLER_11_293
*952 FILLER_11_297
*953 FILLER_11_3
*954 FILLER_11_303
*955 FILLER_11_313
*956 FILLER_11_323
*957 FILLER_11_33
*958 FILLER_11_330
*959 FILLER_11_337
*960 FILLER_11_349
*961 FILLER_11_361
*962 FILLER_11_373
*963 FILLER_11_379
*964 FILLER_11_384
*965 FILLER_11_45
*966 FILLER_11_53
*967 FILLER_11_57
*968 FILLER_11_69
*969 FILLER_11_81
*970 FILLER_11_89
*971 FILLER_11_9
*972 FILLER_11_94
*973 FILLER_12_104
*974 FILLER_12_110
*975 FILLER_12_114
*976 FILLER_12_121
*977 FILLER_12_134
*978 FILLER_12_141
*979 FILLER_12_147
*980 FILLER_12_15
*981 FILLER_12_151
*982 FILLER_12_158
*983 FILLER_12_185
*984 FILLER_12_192
*985 FILLER_12_197
*986 FILLER_12_202
*987 FILLER_12_209
*988 FILLER_12_213
*989 FILLER_12_237
*990 FILLER_12_244
*991 FILLER_12_250
*992 FILLER_12_253
*993 FILLER_12_27
*994 FILLER_12_278
*995 FILLER_12_29
*996 FILLER_12_3
*997 FILLER_12_302
*998 FILLER_12_309
*999 FILLER_12_317
*1000 FILLER_12_324
*1001 FILLER_12_328
*1002 FILLER_12_338
*1003 FILLER_12_350
*1004 FILLER_12_362
*1005 FILLER_12_365
*1006 FILLER_12_377
*1007 FILLER_12_385
*1008 FILLER_12_41
*1009 FILLER_12_53
*1010 FILLER_12_65
*1011 FILLER_12_77
*1012 FILLER_12_83
*1013 FILLER_12_85
*1014 FILLER_12_91
*1015 FILLER_12_97
*1016 FILLER_13_110
*1017 FILLER_13_113
*1018 FILLER_13_124
*1019 FILLER_13_130
*1020 FILLER_13_134
*1021 FILLER_13_141
*1022 FILLER_13_15
*1023 FILLER_13_166
*1024 FILLER_13_169
*1025 FILLER_13_173
*1026 FILLER_13_200
*1027 FILLER_13_211
*1028 FILLER_13_218
*1029 FILLER_13_225
*1030 FILLER_13_231
*1031 FILLER_13_255
*1032 FILLER_13_266
*1033 FILLER_13_27
*1034 FILLER_13_273
*1035 FILLER_13_279
*1036 FILLER_13_281
*1037 FILLER_13_286
*1038 FILLER_13_293
*1039 FILLER_13_3
*1040 FILLER_13_300
*1041 FILLER_13_307
*1042 FILLER_13_313
*1043 FILLER_13_323
*1044 FILLER_13_335
*1045 FILLER_13_337
*1046 FILLER_13_349
*1047 FILLER_13_361
*1048 FILLER_13_373
*1049 FILLER_13_377
*1050 FILLER_13_381
*1051 FILLER_13_385
*1052 FILLER_13_39
*1053 FILLER_13_51
*1054 FILLER_13_55
*1055 FILLER_13_57
*1056 FILLER_13_69
*1057 FILLER_13_81
*1058 FILLER_13_91
*1059 FILLER_13_97
*1060 FILLER_14_102
*1061 FILLER_14_109
*1062 FILLER_14_113
*1063 FILLER_14_117
*1064 FILLER_14_124
*1065 FILLER_14_131
*1066 FILLER_14_138
*1067 FILLER_14_141
*1068 FILLER_14_148
*1069 FILLER_14_15
*1070 FILLER_14_175
*1071 FILLER_14_183
*1072 FILLER_14_187
*1073 FILLER_14_194
*1074 FILLER_14_197
*1075 FILLER_14_203
*1076 FILLER_14_207
*1077 FILLER_14_234
*1078 FILLER_14_241
*1079 FILLER_14_248
*1080 FILLER_14_253
*1081 FILLER_14_27
*1082 FILLER_14_278
*1083 FILLER_14_285
*1084 FILLER_14_29
*1085 FILLER_14_292
*1086 FILLER_14_3
*1087 FILLER_14_306
*1088 FILLER_14_309
*1089 FILLER_14_320
*1090 FILLER_14_327
*1091 FILLER_14_333
*1092 FILLER_14_345
*1093 FILLER_14_357
*1094 FILLER_14_363
*1095 FILLER_14_365
*1096 FILLER_14_377
*1097 FILLER_14_385
*1098 FILLER_14_41
*1099 FILLER_14_53
*1100 FILLER_14_65
*1101 FILLER_14_77
*1102 FILLER_14_82
*1103 FILLER_14_85
*1104 FILLER_14_90
*1105 FILLER_14_96
*1106 FILLER_15_103
*1107 FILLER_15_110
*1108 FILLER_15_113
*1109 FILLER_15_124
*1110 FILLER_15_133
*1111 FILLER_15_141
*1112 FILLER_15_166
*1113 FILLER_15_169
*1114 FILLER_15_174
*1115 FILLER_15_198
*1116 FILLER_15_21
*1117 FILLER_15_222
*1118 FILLER_15_225
*1119 FILLER_15_230
*1120 FILLER_15_237
*1121 FILLER_15_241
*1122 FILLER_15_263
*1123 FILLER_15_270
*1124 FILLER_15_277
*1125 FILLER_15_281
*1126 FILLER_15_286
*1127 FILLER_15_292
*1128 FILLER_15_3
*1129 FILLER_15_302
*1130 FILLER_15_312
*1131 FILLER_15_319
*1132 FILLER_15_326
*1133 FILLER_15_33
*1134 FILLER_15_332
*1135 FILLER_15_337
*1136 FILLER_15_349
*1137 FILLER_15_361
*1138 FILLER_15_373
*1139 FILLER_15_376
*1140 FILLER_15_384
*1141 FILLER_15_45
*1142 FILLER_15_53
*1143 FILLER_15_57
*1144 FILLER_15_69
*1145 FILLER_15_78
*1146 FILLER_15_85
*1147 FILLER_15_9
*1148 FILLER_15_91
*1149 FILLER_15_97
*1150 FILLER_16_100
*1151 FILLER_16_113
*1152 FILLER_16_119
*1153 FILLER_16_123
*1154 FILLER_16_136
*1155 FILLER_16_141
*1156 FILLER_16_148
*1157 FILLER_16_15
*1158 FILLER_16_173
*1159 FILLER_16_180
*1160 FILLER_16_187
*1161 FILLER_16_194
*1162 FILLER_16_197
*1163 FILLER_16_201
*1164 FILLER_16_222
*1165 FILLER_16_229
*1166 FILLER_16_236
*1167 FILLER_16_243
*1168 FILLER_16_250
*1169 FILLER_16_253
*1170 FILLER_16_258
*1171 FILLER_16_265
*1172 FILLER_16_27
*1173 FILLER_16_272
*1174 FILLER_16_279
*1175 FILLER_16_286
*1176 FILLER_16_29
*1177 FILLER_16_293
*1178 FILLER_16_3
*1179 FILLER_16_300
*1180 FILLER_16_306
*1181 FILLER_16_309
*1182 FILLER_16_314
*1183 FILLER_16_320
*1184 FILLER_16_326
*1185 FILLER_16_332
*1186 FILLER_16_338
*1187 FILLER_16_350
*1188 FILLER_16_362
*1189 FILLER_16_365
*1190 FILLER_16_377
*1191 FILLER_16_385
*1192 FILLER_16_41
*1193 FILLER_16_53
*1194 FILLER_16_65
*1195 FILLER_16_82
*1196 FILLER_16_85
*1197 FILLER_16_93
*1198 FILLER_17_103
*1199 FILLER_17_110
*1200 FILLER_17_113
*1201 FILLER_17_124
*1202 FILLER_17_139
*1203 FILLER_17_154
*1204 FILLER_17_162
*1205 FILLER_17_166
*1206 FILLER_17_169
*1207 FILLER_17_176
*1208 FILLER_17_183
*1209 FILLER_17_187
*1210 FILLER_17_197
*1211 FILLER_17_203
*1212 FILLER_17_21
*1213 FILLER_17_213
*1214 FILLER_17_220
*1215 FILLER_17_225
*1216 FILLER_17_230
*1217 FILLER_17_236
*1218 FILLER_17_257
*1219 FILLER_17_264
*1220 FILLER_17_271
*1221 FILLER_17_278
*1222 FILLER_17_281
*1223 FILLER_17_286
*1224 FILLER_17_293
*1225 FILLER_17_3
*1226 FILLER_17_300
*1227 FILLER_17_307
*1228 FILLER_17_314
*1229 FILLER_17_320
*1230 FILLER_17_326
*1231 FILLER_17_33
*1232 FILLER_17_332
*1233 FILLER_17_337
*1234 FILLER_17_349
*1235 FILLER_17_361
*1236 FILLER_17_373
*1237 FILLER_17_376
*1238 FILLER_17_384
*1239 FILLER_17_45
*1240 FILLER_17_53
*1241 FILLER_17_57
*1242 FILLER_17_69
*1243 FILLER_17_77
*1244 FILLER_17_83
*1245 FILLER_17_89
*1246 FILLER_17_9
*1247 FILLER_17_96
*1248 FILLER_18_10
*1249 FILLER_18_106
*1250 FILLER_18_113
*1251 FILLER_18_125
*1252 FILLER_18_137
*1253 FILLER_18_141
*1254 FILLER_18_145
*1255 FILLER_18_155
*1256 FILLER_18_161
*1257 FILLER_18_171
*1258 FILLER_18_184
*1259 FILLER_18_190
*1260 FILLER_18_194
*1261 FILLER_18_197
*1262 FILLER_18_202
*1263 FILLER_18_209
*1264 FILLER_18_217
*1265 FILLER_18_22
*1266 FILLER_18_221
*1267 FILLER_18_227
*1268 FILLER_18_240
*1269 FILLER_18_247
*1270 FILLER_18_251
*1271 FILLER_18_253
*1272 FILLER_18_264
*1273 FILLER_18_272
*1274 FILLER_18_279
*1275 FILLER_18_29
*1276 FILLER_18_294
*1277 FILLER_18_3
*1278 FILLER_18_301
*1279 FILLER_18_307
*1280 FILLER_18_309
*1281 FILLER_18_320
*1282 FILLER_18_326
*1283 FILLER_18_332
*1284 FILLER_18_338
*1285 FILLER_18_350
*1286 FILLER_18_362
*1287 FILLER_18_365
*1288 FILLER_18_377
*1289 FILLER_18_385
*1290 FILLER_18_41
*1291 FILLER_18_53
*1292 FILLER_18_65
*1293 FILLER_18_68
*1294 FILLER_18_75
*1295 FILLER_18_82
*1296 FILLER_18_85
*1297 FILLER_18_92
*1298 FILLER_18_99
*1299 FILLER_19_103
*1300 FILLER_19_110
*1301 FILLER_19_113
*1302 FILLER_19_117
*1303 FILLER_19_121
*1304 FILLER_19_134
*1305 FILLER_19_14
*1306 FILLER_19_140
*1307 FILLER_19_153
*1308 FILLER_19_166
*1309 FILLER_19_169
*1310 FILLER_19_175
*1311 FILLER_19_189
*1312 FILLER_19_195
*1313 FILLER_19_199
*1314 FILLER_19_20
*1315 FILLER_19_205
*1316 FILLER_19_215
*1317 FILLER_19_222
*1318 FILLER_19_225
*1319 FILLER_19_238
*1320 FILLER_19_245
*1321 FILLER_19_252
*1322 FILLER_19_259
*1323 FILLER_19_263
*1324 FILLER_19_273
*1325 FILLER_19_279
*1326 FILLER_19_281
*1327 FILLER_19_286
*1328 FILLER_19_293
*1329 FILLER_19_3
*1330 FILLER_19_300
*1331 FILLER_19_307
*1332 FILLER_19_314
*1333 FILLER_19_32
*1334 FILLER_19_321
*1335 FILLER_19_328
*1336 FILLER_19_334
*1337 FILLER_19_337
*1338 FILLER_19_341
*1339 FILLER_19_353
*1340 FILLER_19_365
*1341 FILLER_19_377
*1342 FILLER_19_385
*1343 FILLER_19_44
*1344 FILLER_19_57
*1345 FILLER_19_69
*1346 FILLER_19_77
*1347 FILLER_19_83
*1348 FILLER_19_89
*1349 FILLER_19_96
*1350 FILLER_1_110
*1351 FILLER_1_113
*1352 FILLER_1_117
*1353 FILLER_1_138
*1354 FILLER_1_144
*1355 FILLER_1_16
*1356 FILLER_1_166
*1357 FILLER_1_169
*1358 FILLER_1_175
*1359 FILLER_1_183
*1360 FILLER_1_188
*1361 FILLER_1_215
*1362 FILLER_1_22
*1363 FILLER_1_221
*1364 FILLER_1_225
*1365 FILLER_1_250
*1366 FILLER_1_277
*1367 FILLER_1_281
*1368 FILLER_1_3
*1369 FILLER_1_303
*1370 FILLER_1_321
*1371 FILLER_1_328
*1372 FILLER_1_334
*1373 FILLER_1_337
*1374 FILLER_1_34
*1375 FILLER_1_342
*1376 FILLER_1_349
*1377 FILLER_1_355
*1378 FILLER_1_363
*1379 FILLER_1_369
*1380 FILLER_1_376
*1381 FILLER_1_384
*1382 FILLER_1_46
*1383 FILLER_1_54
*1384 FILLER_1_57
*1385 FILLER_1_69
*1386 FILLER_1_73
*1387 FILLER_1_79
*1388 FILLER_1_86
*1389 FILLER_1_9
*1390 FILLER_20_110
*1391 FILLER_20_123
*1392 FILLER_20_138
*1393 FILLER_20_141
*1394 FILLER_20_15
*1395 FILLER_20_152
*1396 FILLER_20_167
*1397 FILLER_20_180
*1398 FILLER_20_188