*SPEF "ieee 1481-1999"
*DESIGN "cbx_1__1_"
*DATE "11:11:11 Fri 11 11, 1111"
*VENDOR "OpenRCX"
*PROGRAM "Parallel Extraction"
*VERSION "1.0"
*DESIGN_FLOW "NAME_SCOPE LOCAL" "PIN_CAP NONE"
*DIVIDER /
*DELIMITER :
*BUS_DELIMITER []
*T_UNIT 1 NS
*C_UNIT 1 PF
*R_UNIT 1 OHM
*L_UNIT 1 HENRY

*NAME_MAP
*1 bottom_grid_top_width_0_height_0_subtile_0__pin_I_0_
*2 bottom_grid_top_width_0_height_0_subtile_0__pin_I_4_
*3 bottom_grid_top_width_0_height_0_subtile_0__pin_I_8_
*4 bottom_grid_top_width_0_height_0_subtile_0__pin_clk_0_
*5 ccff_head
*6 ccff_tail
*7 chanx_left_in[0]
*8 chanx_left_in[10]
*9 chanx_left_in[11]
*10 chanx_left_in[12]
*11 chanx_left_in[13]
*12 chanx_left_in[14]
*13 chanx_left_in[15]
*14 chanx_left_in[16]
*15 chanx_left_in[17]
*16 chanx_left_in[18]
*17 chanx_left_in[1]
*18 chanx_left_in[2]
*19 chanx_left_in[3]
*20 chanx_left_in[4]
*21 chanx_left_in[5]
*22 chanx_left_in[6]
*23 chanx_left_in[7]
*24 chanx_left_in[8]
*25 chanx_left_in[9]
*26 chanx_left_out[0]
*27 chanx_left_out[10]
*28 chanx_left_out[11]
*29 chanx_left_out[12]
*30 chanx_left_out[13]
*31 chanx_left_out[14]
*32 chanx_left_out[15]
*33 chanx_left_out[16]
*34 chanx_left_out[17]
*35 chanx_left_out[18]
*36 chanx_left_out[1]
*37 chanx_left_out[2]
*38 chanx_left_out[3]
*39 chanx_left_out[4]
*40 chanx_left_out[5]
*41 chanx_left_out[6]
*42 chanx_left_out[7]
*43 chanx_left_out[8]
*44 chanx_left_out[9]
*45 chanx_right_in[0]
*46 chanx_right_in[10]
*47 chanx_right_in[11]
*48 chanx_right_in[12]
*49 chanx_right_in[13]
*50 chanx_right_in[14]
*51 chanx_right_in[15]
*52 chanx_right_in[16]
*53 chanx_right_in[17]
*54 chanx_right_in[18]
*55 chanx_right_in[1]
*56 chanx_right_in[2]
*57 chanx_right_in[3]
*58 chanx_right_in[4]
*59 chanx_right_in[5]
*60 chanx_right_in[6]
*61 chanx_right_in[7]
*62 chanx_right_in[8]
*63 chanx_right_in[9]
*64 chanx_right_out[0]
*65 chanx_right_out[10]
*66 chanx_right_out[11]
*67 chanx_right_out[12]
*68 chanx_right_out[13]
*69 chanx_right_out[14]
*70 chanx_right_out[15]
*71 chanx_right_out[16]
*72 chanx_right_out[17]
*73 chanx_right_out[18]
*74 chanx_right_out[1]
*75 chanx_right_out[2]
*76 chanx_right_out[3]
*77 chanx_right_out[4]
*78 chanx_right_out[5]
*79 chanx_right_out[6]
*80 chanx_right_out[7]
*81 chanx_right_out[8]
*82 chanx_right_out[9]
*83 pReset
*84 prog_clk
*85 top_grid_bottom_width_0_height_0_subtile_0__pin_I_10_
*86 top_grid_bottom_width_0_height_0_subtile_0__pin_I_2_
*87 top_grid_bottom_width_0_height_0_subtile_0__pin_I_6_
*90 _000_
*91 _001_
*92 _002_
*93 _003_
*94 _004_
*95 _005_
*96 _006_
*97 _007_
*98 _008_
*99 _009_
*100 _010_
*101 _011_
*102 _012_
*103 _013_
*104 _014_
*105 _015_
*106 _016_
*107 _017_
*108 _018_
*109 _019_
*110 _020_
*111 _021_
*112 _022_
*113 _023_
*114 _024_
*115 _025_
*116 _026_
*117 _027_
*118 _028_
*119 _029_
*120 _030_
*121 _031_
*122 _032_
*123 _033_
*124 _034_
*125 _035_
*126 _036_
*127 _037_
*128 _038_
*129 _039_
*130 _040_
*131 _041_
*132 _042_
*133 _043_
*134 _044_
*135 _045_
*136 _046_
*137 _047_
*138 _048_
*139 _049_
*140 _050_
*141 _051_
*142 _052_
*143 _053_
*144 _054_
*145 _055_
*146 _056_
*147 _057_
*148 _058_
*149 _059_
*150 _060_
*151 _061_
*152 _062_
*153 _063_
*154 _064_
*155 _065_
*156 _066_
*157 _067_
*158 _068_
*159 _069_
*160 _070_
*161 _071_
*162 _072_
*163 _073_
*164 _074_
*165 _075_
*166 _076_
*167 _077_
*168 _078_
*169 _079_
*170 _080_
*171 _081_
*172 _082_
*173 _083_
*174 _084_
*175 _085_
*176 _086_
*177 _087_
*178 _088_
*179 _089_
*180 _090_
*181 _091_
*182 _092_
*183 _093_
*184 _094_
*185 _095_
*186 _096_
*187 _097_
*188 _098_
*189 _099_
*190 _100_
*191 _101_
*192 _102_
*193 _103_
*194 _104_
*195 _105_
*196 _106_
*197 _107_
*198 _108_
*199 _109_
*200 _110_
*201 _111_
*202 _112_
*203 _113_
*204 _114_
*205 _115_
*206 _116_
*207 _117_
*208 _118_
*209 _119_
*210 _120_
*211 _121_
*212 _122_
*213 _123_
*214 _124_
*215 _125_
*216 _126_
*217 mem_bottom_ipin_0\.DFFR_0_\.Q
*218 mem_bottom_ipin_0\.DFFR_1_\.Q
*219 mem_bottom_ipin_0\.DFFR_2_\.Q
*220 mem_bottom_ipin_0\.DFFR_3_\.Q
*221 mem_bottom_ipin_0\.DFFR_4_\.Q
*222 mem_bottom_ipin_0\.DFFR_5_\.Q
*223 mem_bottom_ipin_1\.DFFR_0_\.Q
*224 mem_bottom_ipin_1\.DFFR_1_\.Q
*225 mem_bottom_ipin_1\.DFFR_2_\.Q
*226 mem_bottom_ipin_1\.DFFR_3_\.Q
*227 mem_bottom_ipin_1\.DFFR_4_\.Q
*228 mem_bottom_ipin_1\.DFFR_5_\.Q
*229 mem_bottom_ipin_2\.DFFR_0_\.Q
*230 mem_bottom_ipin_2\.DFFR_1_\.Q
*231 mem_bottom_ipin_2\.DFFR_2_\.Q
*232 mem_bottom_ipin_2\.DFFR_3_\.Q
*233 mem_bottom_ipin_2\.DFFR_4_\.Q
*234 mem_bottom_ipin_2\.DFFR_5_\.Q
*235 mem_top_ipin_0\.DFFR_0_\.Q
*236 mem_top_ipin_0\.DFFR_1_\.Q
*237 mem_top_ipin_0\.DFFR_2_\.Q
*238 mem_top_ipin_0\.DFFR_3_\.Q
*239 mem_top_ipin_0\.DFFR_4_\.Q
*240 mem_top_ipin_0\.DFFR_5_\.Q
*241 mem_top_ipin_1\.DFFR_0_\.Q
*242 mem_top_ipin_1\.DFFR_1_\.Q
*243 mem_top_ipin_1\.DFFR_2_\.Q
*244 mem_top_ipin_1\.DFFR_3_\.Q
*245 mem_top_ipin_1\.DFFR_4_\.Q
*246 mem_top_ipin_1\.DFFR_5_\.Q
*247 mem_top_ipin_2\.DFFR_0_\.Q
*248 mem_top_ipin_2\.DFFR_1_\.Q
*249 mem_top_ipin_2\.DFFR_2_\.Q
*250 mem_top_ipin_2\.DFFR_3_\.Q
*251 mem_top_ipin_2\.DFFR_4_\.Q
*252 mem_top_ipin_2\.DFFR_5_\.Q
*253 mem_top_ipin_3\.DFFR_0_\.Q
*254 mem_top_ipin_3\.DFFR_1_\.Q
*255 mem_top_ipin_3\.DFFR_2_\.Q
*256 mem_top_ipin_3\.DFFR_3_\.Q
*257 mem_top_ipin_3\.DFFR_4_\.Q
*258 mux_bottom_ipin_0\.INVTX1_0_\.out
*259 mux_bottom_ipin_0\.INVTX1_1_\.out
*260 mux_bottom_ipin_0\.INVTX1_2_\.out
*261 mux_bottom_ipin_0\.INVTX1_3_\.out
*262 mux_bottom_ipin_0\.INVTX1_4_\.out
*263 mux_bottom_ipin_0\.INVTX1_5_\.out
*264 mux_bottom_ipin_0\.INVTX1_6_\.out
*265 mux_bottom_ipin_0\.INVTX1_7_\.out
*266 mux_bottom_ipin_0\.mux_2level_tapbuf_basis_input3_mem3_0_out
*267 mux_bottom_ipin_0\.mux_2level_tapbuf_basis_input3_mem3_1_out
*268 mux_bottom_ipin_0\.mux_2level_tapbuf_basis_input3_mem3_2_out
*269 mux_bottom_ipin_0\.mux_2level_tapbuf_basis_input3_mem3_3_out
*270 mux_bottom_ipin_1\.INVTX1_2_\.out
*271 mux_bottom_ipin_1\.INVTX1_3_\.out
*272 mux_bottom_ipin_1\.INVTX1_4_\.out
*273 mux_bottom_ipin_1\.INVTX1_5_\.out
*274 mux_bottom_ipin_1\.INVTX1_6_\.out
*275 mux_bottom_ipin_1\.INVTX1_7_\.out
*276 mux_bottom_ipin_1\.mux_2level_tapbuf_basis_input3_mem3_0_out
*277 mux_bottom_ipin_1\.mux_2level_tapbuf_basis_input3_mem3_1_out
*278 mux_bottom_ipin_1\.mux_2level_tapbuf_basis_input3_mem3_2_out
*279 mux_bottom_ipin_1\.mux_2level_tapbuf_basis_input3_mem3_3_out
*280 mux_bottom_ipin_2\.INVTX1_2_\.out
*281 mux_bottom_ipin_2\.INVTX1_3_\.out
*282 mux_bottom_ipin_2\.INVTX1_4_\.out
*283 mux_bottom_ipin_2\.INVTX1_5_\.out
*284 mux_bottom_ipin_2\.mux_2level_tapbuf_basis_input3_mem3_0_out
*285 mux_bottom_ipin_2\.mux_2level_tapbuf_basis_input3_mem3_1_out
*286 mux_bottom_ipin_2\.mux_2level_tapbuf_basis_input3_mem3_2_out
*287 mux_top_ipin_0\.INVTX1_2_\.out
*288 mux_top_ipin_0\.INVTX1_3_\.out
*289 mux_top_ipin_0\.INVTX1_4_\.out
*290 mux_top_ipin_0\.INVTX1_5_\.out
*291 mux_top_ipin_0\.INVTX1_6_\.out
*292 mux_top_ipin_0\.INVTX1_7_\.out
*293 mux_top_ipin_0\.mux_2level_tapbuf_basis_input3_mem3_0_out
*294 mux_top_ipin_0\.mux_2level_tapbuf_basis_input3_mem3_1_out
*295 mux_top_ipin_0\.mux_2level_tapbuf_basis_input3_mem3_2_out
*296 mux_top_ipin_0\.mux_2level_tapbuf_basis_input3_mem3_3_out
*297 mux_top_ipin_1\.INVTX1_2_\.out
*298 mux_top_ipin_1\.INVTX1_3_\.out
*299 mux_top_ipin_1\.INVTX1_4_\.out
*300 mux_top_ipin_1\.INVTX1_5_\.out
*301 mux_top_ipin_1\.INVTX1_6_\.out
*302 mux_top_ipin_1\.INVTX1_7_\.out
*303 mux_top_ipin_1\.mux_2level_tapbuf_basis_input3_mem3_0_out
*304 mux_top_ipin_1\.mux_2level_tapbuf_basis_input3_mem3_1_out
*305 mux_top_ipin_1\.mux_2level_tapbuf_basis_input3_mem3_2_out
*306 mux_top_ipin_1\.mux_2level_tapbuf_basis_input3_mem3_3_out
*307 mux_top_ipin_2\.INVTX1_2_\.out
*308 mux_top_ipin_2\.INVTX1_3_\.out
*309 mux_top_ipin_2\.INVTX1_6_\.out
*310 mux_top_ipin_2\.INVTX1_7_\.out
*311 mux_top_ipin_2\.mux_2level_tapbuf_basis_input3_mem3_0_out
*312 mux_top_ipin_2\.mux_2level_tapbuf_basis_input3_mem3_1_out
*313 mux_top_ipin_2\.mux_2level_tapbuf_basis_input3_mem3_2_out
*314 mux_top_ipin_2\.mux_2level_tapbuf_basis_input3_mem3_3_out
*315 mux_top_ipin_3\.mux_2level_tapbuf_basis_input3_mem3_0_out
*316 mux_top_ipin_3\.mux_2level_tapbuf_basis_input3_mem3_1_out
*317 mux_top_ipin_3\.mux_2level_tapbuf_basis_input3_mem3_2_out
*318 mux_top_ipin_3\.mux_2level_tapbuf_basis_input3_mem3_3_out
*319 net1
*320 net10
*321 net11
*322 net12
*323 net13
*324 net14
*325 net15
*326 net16
*327 net17
*328 net18
*329 net19
*330 net2
*331 net20
*332 net21
*333 net22
*334 net23
*335 net24
*336 net25
*337 net26
*338 net27
*339 net28
*340 net29
*341 net3
*342 net30
*343 net31
*344 net32
*345 net33
*346 net34
*347 net35
*348 net36
*349 net37
*350 net38
*351 net39
*352 net4
*353 net40
*354 net41
*355 net42
*356 net43
*357 net44
*358 net45
*359 net46
*360 net47
*361 net48
*362 net49
*363 net5
*364 net50
*365 net51
*366 net52
*367 net53
*368 net54
*369 net55
*370 net56
*371 net57
*372 net58
*373 net59
*374 net6
*375 net60
*376 net61
*377 net62
*378 net63
*379 net64
*380 net65
*381 net66
*382 net67
*383 net68
*384 net69
*385 net7
*386 net70
*387 net71
*388 net72
*389 net73
*390 net74
*391 net75
*392 net76
*393 net77
*394 net78
*395 net79
*396 net8
*397 net80
*398 net81
*399 net82
*400 net83
*401 net84
*402 net85
*403 net86
*404 net87
*405 net88
*406 net89
*407 net9
*408 net90
*409 net91
*410 net92
*411 net93
*412 ANTENNA__169__A
*413 ANTENNA__173__A
*414 ANTENNA__177__A
*415 ANTENNA__180__A
*416 ANTENNA__181__A
*417 ANTENNA__182__A
*418 ANTENNA__184__A
*419 ANTENNA__185__A
*420 ANTENNA__186__A
*421 ANTENNA__188__A
*422 ANTENNA__189__A
*423 ANTENNA__190__A
*424 ANTENNA__194__A
*425 ANTENNA__198__A
*426 ANTENNA__202__A
*427 ANTENNA__205__A
*428 ANTENNA__216__A
*429 ANTENNA__217__A
*430 ANTENNA__220__A
*431 ANTENNA__221__A
*432 ANTENNA__225__A
*433 ANTENNA__226__A
*434 ANTENNA__227__A
*435 ANTENNA__228__A
*436 ANTENNA__229__A
*437 ANTENNA__231__A
*438 ANTENNA__233__A
*439 ANTENNA__234__A
*440 ANTENNA__236__A
*441 ANTENNA__239__A
*442 ANTENNA__240__A
*443 ANTENNA__241__A
*444 ANTENNA__242__A
*445 ANTENNA__243__A
*446 ANTENNA__245__A
*447 ANTENNA__246__A
*448 ANTENNA__247__A
*449 ANTENNA__248__A
*450 ANTENNA__250__A
*451 ANTENNA__251__A
*452 ANTENNA__252__A
*453 ANTENNA__253__A
*454 ANTENNA__254__A
*455 ANTENNA__255__A
*456 ANTENNA__256__A
*457 ANTENNA__257__A
*458 ANTENNA__258__A
*459 ANTENNA__259__A
*460 ANTENNA__260__A
*461 ANTENNA__261__A
*462 ANTENNA__262__A
*463 ANTENNA__263__A
*464 ANTENNA__264__A
*465 ANTENNA__265__A
*466 ANTENNA__266__A
*467 ANTENNA__267__A
*468 ANTENNA__268__A
*469 ANTENNA__269__A
*470 ANTENNA__270__A
*471 ANTENNA__271__A
*472 ANTENNA__272__A
*473 ANTENNA__273__A
*474 ANTENNA__274__A
*475 ANTENNA__275__A
*476 ANTENNA__276__A
*477 ANTENNA__277__A
*478 ANTENNA__278__A
*479 ANTENNA__279__A
*480 ANTENNA__280__A
*481 ANTENNA__281__A
*482 ANTENNA__282__A
*483 ANTENNA__283__A
*484 ANTENNA__284__A
*485 ANTENNA__285__A
*486 ANTENNA__286__A
*487 ANTENNA__287__A
*488 ANTENNA__288__A
*489 ANTENNA__289__A
*490 ANTENNA__290__A
*491 ANTENNA__291__A
*492 ANTENNA__292__A
*493 ANTENNA__293__A
*494 ANTENNA__294__A
*495 ANTENNA__295__A
*496 ANTENNA__296__A
*497 ANTENNA__297__A
*498 ANTENNA__298__A
*499 ANTENNA__299__A
*500 ANTENNA__300__A
*501 ANTENNA__301__A
*502 ANTENNA__302__CLK
*503 ANTENNA__302__D
*504 ANTENNA__303__CLK
*505 ANTENNA__304__CLK
*506 ANTENNA__305__CLK
*507 ANTENNA__306__CLK
*508 ANTENNA__307__CLK
*509 ANTENNA__307__D
*510 ANTENNA__308__CLK
*511 ANTENNA__309__CLK
*512 ANTENNA__310__CLK
*513 ANTENNA__310__D
*514 ANTENNA__311__CLK
*515 ANTENNA__312__CLK
*516 ANTENNA__313__CLK
*517 ANTENNA__314__CLK
*518 ANTENNA__315__CLK
*519 ANTENNA__316__CLK
*520 ANTENNA__316__D
*521 ANTENNA__317__CLK
*522 ANTENNA__317__D
*523 ANTENNA__318__CLK
*524 ANTENNA__318__D
*525 ANTENNA__319__CLK
*526 ANTENNA__320__CLK
*527 ANTENNA__321__CLK
*528 ANTENNA__322__CLK
*529 ANTENNA__322__D
*530 ANTENNA__323__CLK
*531 ANTENNA__324__CLK
*532 ANTENNA__325__CLK
*533 ANTENNA__326__CLK
*534 ANTENNA__327__CLK
*535 ANTENNA__328__CLK
*536 ANTENNA__329__CLK
*537 ANTENNA__330__CLK
*538 ANTENNA__331__CLK
*539 ANTENNA__332__CLK
*540 ANTENNA__333__CLK
*541 ANTENNA__334__CLK
*542 ANTENNA__335__CLK
*543 ANTENNA__336__CLK
*544 ANTENNA__337__CLK
*545 ANTENNA__338__CLK
*546 ANTENNA__339__CLK
*547 ANTENNA__340__CLK
*548 ANTENNA__341__CLK
*549 ANTENNA__342__CLK
*550 ANTENNA__343__CLK
*551 ANTENNA__358__A
*552 ANTENNA__359__A
*553 ANTENNA__360__A
*554 ANTENNA__361__A
*555 ANTENNA__362__A
*556 ANTENNA__364__A
*557 ANTENNA__365__A
*558 ANTENNA__367__A
*559 ANTENNA__368__A
*560 ANTENNA__369__A
*561 ANTENNA__370__A
*562 ANTENNA__371__A
*563 ANTENNA__372__A
*564 ANTENNA__374__A
*565 ANTENNA__375__A
*566 ANTENNA__377__A
*567 ANTENNA__378__A
*568 ANTENNA__379__A
*569 ANTENNA__381__A
*570 ANTENNA__382__A
*571 ANTENNA__383__A
*572 ANTENNA__384__A
*573 ANTENNA__385__A
*574 ANTENNA__386__A
*575 ANTENNA__387__A
*576 ANTENNA__394__A
*577 ANTENNA__423__A
*578 ANTENNA__427__A
*579 ANTENNA__431__A
*580 ANTENNA__451__A
*581 ANTENNA_input10_A
*582 ANTENNA_input11_A
*583 ANTENNA_input12_A
*584 ANTENNA_input13_A
*585 ANTENNA_input14_A
*586 ANTENNA_input15_A
*587 ANTENNA_input16_A
*588 ANTENNA_input17_A
*589 ANTENNA_input18_A
*590 ANTENNA_input19_A
*591 ANTENNA_input1_A
*592 ANTENNA_input20_A
*593 ANTENNA_input21_A
*594 ANTENNA_input22_A
*595 ANTENNA_input23_A
*596 ANTENNA_input24_A
*597 ANTENNA_input25_A
*598 ANTENNA_input26_A
*599 ANTENNA_input27_A
*600 ANTENNA_input28_A
*601 ANTENNA_input29_A
*602 ANTENNA_input2_A
*603 ANTENNA_input30_A
*604 ANTENNA_input31_A
*605 ANTENNA_input32_A
*606 ANTENNA_input33_A
*607 ANTENNA_input34_A
*608 ANTENNA_input35_A
*609 ANTENNA_input36_A
*610 ANTENNA_input37_A
*611 ANTENNA_input38_A
*612 ANTENNA_input39_A
*613 ANTENNA_input3_A
*614 ANTENNA_input40_A
*615 ANTENNA_input4_A
*616 ANTENNA_input5_A
*617 ANTENNA_input6_A
*618 ANTENNA_input7_A
*619 ANTENNA_input8_A
*620 ANTENNA_input9_A
*621 ANTENNA_output46_A
*622 ANTENNA_output49_A
*623 ANTENNA_output62_A
*624 ANTENNA_output63_A
*625 ANTENNA_output64_A
*626 ANTENNA_output65_A
*627 ANTENNA_output70_A
*628 ANTENNA_output71_A
*629 ANTENNA_output73_A
*630 FILLER_0_105
*631 FILLER_0_111
*632 FILLER_0_113
*633 FILLER_0_119
*634 FILLER_0_131
*635 FILLER_0_139
*636 FILLER_0_141
*637 FILLER_0_147
*638 FILLER_0_155
*639 FILLER_0_16
*640 FILLER_0_161
*641 FILLER_0_167
*642 FILLER_0_169
*643 FILLER_0_177
*644 FILLER_0_182
*645 FILLER_0_188
*646 FILLER_0_197
*647 FILLER_0_202
*648 FILLER_0_208
*649 FILLER_0_212
*650 FILLER_0_217
*651 FILLER_0_22
*652 FILLER_0_223
*653 FILLER_0_225
*654 FILLER_0_247
*655 FILLER_0_251
*656 FILLER_0_253
*657 FILLER_0_275
*658 FILLER_0_279
*659 FILLER_0_281
*660 FILLER_0_29
*661 FILLER_0_3
*662 FILLER_0_305
*663 FILLER_0_309
*664 FILLER_0_331
*665 FILLER_0_335
*666 FILLER_0_337
*667 FILLER_0_349
*668 FILLER_0_35
*669 FILLER_0_357
*670 FILLER_0_363
*671 FILLER_0_365
*672 FILLER_0_377
*673 FILLER_0_383
*674 FILLER_0_41
*675 FILLER_0_49
*676 FILLER_0_55
*677 FILLER_0_57
*678 FILLER_0_63
*679 FILLER_0_75
*680 FILLER_0_79
*681 FILLER_0_82
*682 FILLER_0_85
*683 FILLER_0_9
*684 FILLER_0_91
*685 FILLER_0_97
*686 FILLER_10_109
*687 FILLER_10_121
*688 FILLER_10_133
*689 FILLER_10_139
*690 FILLER_10_141
*691 FILLER_10_15
*692 FILLER_10_153
*693 FILLER_10_165
*694 FILLER_10_177
*695 FILLER_10_180
*696 FILLER_10_187
*697 FILLER_10_194
*698 FILLER_10_197
*699 FILLER_10_207
*700 FILLER_10_236
*701 FILLER_10_243
*702 FILLER_10_250
*703 FILLER_10_253
*704 FILLER_10_258
*705 FILLER_10_264
*706 FILLER_10_27
*707 FILLER_10_270
*708 FILLER_10_29
*709 FILLER_10_295
*710 FILLER_10_3
*711 FILLER_10_301
*712 FILLER_10_307
*713 FILLER_10_309
*714 FILLER_10_313
*715 FILLER_10_325
*716 FILLER_10_328
*717 FILLER_10_334
*718 FILLER_10_340
*719 FILLER_10_349
*720 FILLER_10_355
*721 FILLER_10_361
*722 FILLER_10_365
*723 FILLER_10_369
*724 FILLER_10_373
*725 FILLER_10_384
*726 FILLER_10_41
*727 FILLER_10_53
*728 FILLER_10_65
*729 FILLER_10_77
*730 FILLER_10_83
*731 FILLER_10_85
*732 FILLER_10_97
*733 FILLER_11_105
*734 FILLER_11_111
*735 FILLER_11_113
*736 FILLER_11_125
*737 FILLER_11_137
*738 FILLER_11_149
*739 FILLER_11_15
*740 FILLER_11_161
*741 FILLER_11_167
*742 FILLER_11_169
*743 FILLER_11_184
*744 FILLER_11_197
*745 FILLER_11_222
*746 FILLER_11_225
*747 FILLER_11_248
*748 FILLER_11_27
*749 FILLER_11_273
*750 FILLER_11_279
*751 FILLER_11_281
*752 FILLER_11_286
*753 FILLER_11_290
*754 FILLER_11_3
*755 FILLER_11_314
*756 FILLER_11_320
*757 FILLER_11_334
*758 FILLER_11_337
*759 FILLER_11_343
*760 FILLER_11_350
*761 FILLER_11_356
*762 FILLER_11_362
*763 FILLER_11_366
*764 FILLER_11_369
*765 FILLER_11_375
*766 FILLER_11_381
*767 FILLER_11_384
*768 FILLER_11_39
*769 FILLER_11_51
*770 FILLER_11_55
*771 FILLER_11_57
*772 FILLER_11_69
*773 FILLER_11_81
*774 FILLER_11_93
*775 FILLER_12_109
*776 FILLER_12_121
*777 FILLER_12_133
*778 FILLER_12_139
*779 FILLER_12_141
*780 FILLER_12_15
*781 FILLER_12_153
*782 FILLER_12_165
*783 FILLER_12_177
*784 FILLER_12_182
*785 FILLER_12_194
*786 FILLER_12_197
*787 FILLER_12_212
*788 FILLER_12_237
*789 FILLER_12_250
*790 FILLER_12_253
*791 FILLER_12_27
*792 FILLER_12_275
*793 FILLER_12_29
*794 FILLER_12_299
*795 FILLER_12_3
*796 FILLER_12_305
*797 FILLER_12_309
*798 FILLER_12_321
*799 FILLER_12_333
*800 FILLER_12_337
*801 FILLER_12_340
*802 FILLER_12_346
*803 FILLER_12_352
*804 FILLER_12_355
*805 FILLER_12_361
*806 FILLER_12_365
*807 FILLER_12_369
*808 FILLER_12_377
*809 FILLER_12_380
*810 FILLER_12_41
*811 FILLER_12_53
*812 FILLER_12_65
*813 FILLER_12_77
*814 FILLER_12_83
*815 FILLER_12_85
*816 FILLER_12_9
*817 FILLER_12_97
*818 FILLER_13_105
*819 FILLER_13_111
*820 FILLER_13_113
*821 FILLER_13_125
*822 FILLER_13_137
*823 FILLER_13_149
*824 FILLER_13_15
*825 FILLER_13_161
*826 FILLER_13_167
*827 FILLER_13_169
*828 FILLER_13_175
*829 FILLER_13_181
*830 FILLER_13_188
*831 FILLER_13_200
*832 FILLER_13_215
*833 FILLER_13_222
*834 FILLER_13_225
*835 FILLER_13_247
*836 FILLER_13_27
*837 FILLER_13_271
*838 FILLER_13_278
*839 FILLER_13_281
*840 FILLER_13_286
*841 FILLER_13_293
*842 FILLER_13_299
*843 FILLER_13_3
*844 FILLER_13_305
*845 FILLER_13_317
*846 FILLER_13_329
*847 FILLER_13_335
*848 FILLER_13_337
*849 FILLER_13_345
*850 FILLER_13_349
*851 FILLER_13_353
*852 FILLER_13_356
*853 FILLER_13_362
*854 FILLER_13_372
*855 FILLER_13_378
*856 FILLER_13_384
*857 FILLER_13_39
*858 FILLER_13_51
*859 FILLER_13_55
*860 FILLER_13_57
*861 FILLER_13_69
*862 FILLER_13_81
*863 FILLER_13_93
*864 FILLER_14_109
*865 FILLER_14_121
*866 FILLER_14_133
*867 FILLER_14_139
*868 FILLER_14_141
*869 FILLER_14_15
*870 FILLER_14_153
*871 FILLER_14_165
*872 FILLER_14_177
*873 FILLER_14_180
*874 FILLER_14_187
*875 FILLER_14_194
*876 FILLER_14_197
*877 FILLER_14_214
*878 FILLER_14_231
*879 FILLER_14_244
*880 FILLER_14_250
*881 FILLER_14_253
*882 FILLER_14_259
*883 FILLER_14_264
*884 FILLER_14_27
*885 FILLER_14_277
*886 FILLER_14_284
*887 FILLER_14_29
*888 FILLER_14_291
*889 FILLER_14_298
*890 FILLER_14_3
*891 FILLER_14_305
*892 FILLER_14_309
*893 FILLER_14_321
*894 FILLER_14_333
*895 FILLER_14_345
*896 FILLER_14_357
*897 FILLER_14_363
*898 FILLER_14_365
*899 FILLER_14_369
*900 FILLER_14_373
*901 FILLER_14_384
*902 FILLER_14_41
*903 FILLER_14_53
*904 FILLER_14_65
*905 FILLER_14_72
*906 FILLER_14_78
*907 FILLER_14_85
*908 FILLER_14_97
*909 FILLER_15_105
*910 FILLER_15_111
*911 FILLER_15_113
*912 FILLER_15_125
*913 FILLER_15_137
*914 FILLER_15_149
*915 FILLER_15_15
*916 FILLER_15_161
*917 FILLER_15_167
*918 FILLER_15_169
*919 FILLER_15_175
*920 FILLER_15_178
*921 FILLER_15_185
*922 FILLER_15_202
*923 FILLER_15_219
*924 FILLER_15_223
*925 FILLER_15_225
*926 FILLER_15_240
*927 FILLER_15_257
*928 FILLER_15_263
*929 FILLER_15_27
*930 FILLER_15_276
*931 FILLER_15_281
*932 FILLER_15_296
*933 FILLER_15_3
*934 FILLER_15_303
*935 FILLER_15_310
*936 FILLER_15_317
*937 FILLER_15_329
*938 FILLER_15_335
*939 FILLER_15_337
*940 FILLER_15_349
*941 FILLER_15_361
*942 FILLER_15_373
*943 FILLER_15_381
*944 FILLER_15_384
*945 FILLER_15_39
*946 FILLER_15_51
*947 FILLER_15_55
*948 FILLER_15_57
*949 FILLER_15_69
*950 FILLER_15_81
*951 FILLER_15_93
*952 FILLER_16_109
*953 FILLER_16_121
*954 FILLER_16_133
*955 FILLER_16_139
*956 FILLER_16_141
*957 FILLER_16_153
*958 FILLER_16_165
*959 FILLER_16_169
*960 FILLER_16_173
*961 FILLER_16_180
*962 FILLER_16_187
*963 FILLER_16_194
*964 FILLER_16_197
*965 FILLER_16_21
*966 FILLER_16_212
*967 FILLER_16_225
*968 FILLER_16_238
*969 FILLER_16_245
*970 FILLER_16_251
*971 FILLER_16_253
*972 FILLER_16_258
*973 FILLER_16_27
*974 FILLER_16_273
*975 FILLER_16_29
*976 FILLER_16_294
*977 FILLER_16_3
*978 FILLER_16_301
*979 FILLER_16_307
*980 FILLER_16_309
*981 FILLER_16_314
*982 FILLER_16_321
*983 FILLER_16_333
*984 FILLER_16_345
*985 FILLER_16_357
*986 FILLER_16_363
*987 FILLER_16_365
*988 FILLER_16_373
*989 FILLER_16_376
*990 FILLER_16_384
*991 FILLER_16_41
*992 FILLER_16_53
*993 FILLER_16_65
*994 FILLER_16_77
*995 FILLER_16_83
*996 FILLER_16_85
*997 FILLER_16_9
*998 FILLER_16_97
*999 FILLER_17_103
*1000 FILLER_17_111
*1001 FILLER_17_113
*1002 FILLER_17_125
*1003 FILLER_17_137
*1004 FILLER_17_144
*1005 FILLER_17_15
*1006 FILLER_17_150
*1007 FILLER_17_162
*1008 FILLER_17_169
*1009 FILLER_17_177
*1010 FILLER_17_181
*1011 FILLER_17_188
*1012 FILLER_17_200
*1013 FILLER_17_213
*1014 FILLER_17_220
*1015 FILLER_17_225
*1016 FILLER_17_236
*1017 FILLER_17_243
*1018 FILLER_17_249
*1019 FILLER_17_263
*1020 FILLER_17_27
*1021 FILLER_17_276
*1022 FILLER_17_281
*1023 FILLER_17_286
*1024 FILLER_17_293
*1025 FILLER_17_3
*1026 FILLER_17_300
*1027 FILLER_17_307
*1028 FILLER_17_314
*1029 FILLER_17_326
*1030 FILLER_17_334
*1031 FILLER_17_337
*1032 FILLER_17_349
*1033 FILLER_17_361
*1034 FILLER_17_373
*1035 FILLER_17_385
*1036 FILLER_17_39
*1037 FILLER_17_51
*1038 FILLER_17_55
*1039 FILLER_17_57
*1040 FILLER_17_69
*1041 FILLER_17_79
*1042 FILLER_17_91
*1043 FILLER_18_109
*1044 FILLER_18_121
*1045 FILLER_18_128
*1046 FILLER_18_134
*1047 FILLER_18_141
*1048 FILLER_18_15
*1049 FILLER_18_153
*1050 FILLER_18_165
*1051 FILLER_18_177
*1052 FILLER_18_182
*1053 FILLER_18_194
*1054 FILLER_18_197
*1055 FILLER_18_207
*1056 FILLER_18_214
*1057 FILLER_18_220
*1058 FILLER_18_233
*1059 FILLER_18_246
*1060 FILLER_18_253
*1061 FILLER_18_258
*1062 FILLER_18_27
*1063 FILLER_18_279
*1064 FILLER_18_286
*1065 FILLER_18_29
*1066 FILLER_18_293
*1067 FILLER_18_3
*1068 FILLER_18_300
*1069 FILLER_18_306
*1070 FILLER_18_309
*1071 FILLER_18_313
*1072 FILLER_18_319
*1073 FILLER_18_331
*1074 FILLER_18_343
*1075 FILLER_18_355
*1076 FILLER_18_363
*1077 FILLER_18_365
*1078 FILLER_18_377
*1079 FILLER_18_385
*1080 FILLER_18_41
*1081 FILLER_18_53
*1082 FILLER_18_65
*1083 FILLER_18_73
*1084 FILLER_18_77
*1085 FILLER_18_83
*1086 FILLER_18_85
*1087 FILLER_18_97
*1088 FILLER_19_105
*1089 FILLER_19_111
*1090 FILLER_19_113
*1091 FILLER_19_125
*1092 FILLER_19_137
*1093 FILLER_19_149
*1094 FILLER_19_16
*1095 FILLER_19_161
*1096 FILLER_19_167
*1097 FILLER_19_169
*1098 FILLER_19_178
*1099 FILLER_19_190
*1100 FILLER_19_202
*1101 FILLER_19_213
*1102 FILLER_19_22
*1103 FILLER_19_220
*1104 FILLER_19_225
*1105 FILLER_19_236
*1106 FILLER_19_244
*1107 FILLER_19_254
*1108 FILLER_19_267
*1109 FILLER_19_274
*1110 FILLER_19_281
*1111 FILLER_19_293
*1112 FILLER_19_3
*1113 FILLER_19_300
*1114 FILLER_19_307
*1115 FILLER_19_313
*1116 FILLER_19_325
*1117 FILLER_19_333
*1118 FILLER_19_337
*1119 FILLER_19_34
*1120 FILLER_19_349
*1121 FILLER_19_361
*1122 FILLER_19_373
*1123 FILLER_19_385
*1124 FILLER_19_46
*1125 FILLER_19_54
*1126 FILLER_19_57
*1127 FILLER_19_69
*1128 FILLER_19_81
*1129 FILLER_19_9
*1130 FILLER_19_93
*1131 FILLER_1_105
*1132 FILLER_1_111
*1133 FILLER_1_113
*1134 FILLER_1_118
*1135 FILLER_1_127
*1136 FILLER_1_133
*1137 FILLER_1_144
*1138 FILLER_1_150
*1139 FILLER_1_158
*1140 FILLER_1_164
*1141 FILLER_1_169
*1142 FILLER_1_173
*1143 FILLER_1_185
*1144 FILLER_1_197
*1145 FILLER_1_201
*1146 FILLER_1_21
*1147 FILLER_1_222
*1148 FILLER_1_225
*1149 FILLER_1_229
*1150 FILLER_1_233
*1151 FILLER_1_238
*1152 FILLER_1_246
*1153 FILLER_1_270
*1154 FILLER_1_278
*1155 FILLER_1_281
*1156 FILLER_1_3
*1157 FILLER_1_303
*1158 FILLER_1_327
*1159 FILLER_1_33
*1160 FILLER_1_334
*1161 FILLER_1_337
*1162 FILLER_1_343
*1163 FILLER_1_350
*1164 FILLER_1_357
*1165 FILLER_1_365
*1166 FILLER_1_370
*1167 FILLER_1_384
*1168 FILLER_1_45
*1169 FILLER_1_53
*1170 FILLER_1_57
*1171 FILLER_1_69
*1172 FILLER_1_81
*1173 FILLER_1_9
*1174 FILLER_1_93
*1175 FILLER_20_109
*1176 FILLER_20_121
*1177 FILLER_20_133
*1178 FILLER_20_139
*1179 FILLER_20_141
*1180 FILLER_20_15
*1181 FILLER_20_153
*1182 FILLER_20_165
*1183 FILLER_20_171
*1184 FILLER_20_174
*1185 FILLER_20_180
*1186 FILLER_20_187
*1187 FILLER_20_194
*1188 FILLER_20_197
*1189 FILLER_20_208
*1190 FILLER_20_225
*1191 FILLER_20_232
*1192 FILLER_20_236
*1193 FILLER_20_246
*1194 FILLER_20_253
*1195 FILLER_20_258
*1196 FILLER_20_27
*1197 FILLER_20_273
*1198 FILLER_20_286
*1199 FILLER_20_29
*1200 FILLER_20_299
*1201 FILLER_20_3
*1202 FILLER_20_306
*1203 FILLER_20_309
*1204 FILLER_20_314
*1205 FILLER_20_320
*1206 FILLER_20_328
*1207 FILLER_20_334
*1208 FILLER_20_346
*1209 FILLER_20_358
*1210 FILLER_20_365
*1211 FILLER_20_377
*1212 FILLER_20_384
*1213 FILLER_20_41
*1214 FILLER_20_53
*1215 FILLER_20_65
*1216 FILLER_20_77
*1217 FILLER_20_83
*1218 FILLER_20_85
*1219 FILLER_20_97
*1220 FILLER_21_105
*1221 FILLER_21_111
*1222 FILLER_21_113
*1223 FILLER_21_125
*1224 FILLER_21_137
*1225 FILLER_21_149
*1226 FILLER_21_15
*1227 FILLER_21_161
*1228 FILLER_21_167
*1229 FILLER_21_169
*1230 FILLER_21_175
*1231 FILLER_21_181
*1232 FILLER_21_188
*1233 FILLER_21_200
*1234 FILLER_21_204
*1235 FILLER_21_214
*1236 FILLER_21_221
*1237 FILLER_21_225
*1238 FILLER_21_230
*1239 FILLER_21_236
*1240 FILLER_21_249
*1241 FILLER_21_256
*1242 FILLER_21_260
*1243 FILLER_21_27
*1244 FILLER_21_270
*1245 FILLER_21_277
*1246 FILLER_21_281
*1247 FILLER_21_296
*1248 FILLER_21_3
*1249 FILLER_21_304
*1250 FILLER_21_311
*1251 FILLER_21_318
*1252 FILLER_21_325
*1253 FILLER_21_333
*1254 FILLER_21_337
*1255 FILLER_21_349
*1256 FILLER_21_361
*1257 FILLER_21_373
*1258 FILLER_21_385
*1259 FILLER_21_39
*1260 FILLER_21_51
*1261 FILLER_21_55
*1262 FILLER_21_57
*1263 FILLER_21_69
*1264 FILLER_21_81
*1265 FILLER_21_93
*1266 FILLER_22_109
*1267 FILLER_22_121
*1268 FILLER_22_133
*1269 FILLER_22_139
*1270 FILLER_22_141
*1271 FILLER_22_153
*1272 FILLER_22_165
*1273 FILLER_22_177
*1274 FILLER_22_187
*1275 FILLER_22_194
*1276 FILLER_22_197
*1277 FILLER_22_207
*1278 FILLER_22_21
*1279 FILLER_22_211
*1280 FILLER_22_225
*1281 FILLER_22_232
*1282 FILLER_22_238
*1283 FILLER_22_250
*1284 FILLER_22_253
*1285 FILLER_22_258
*1286 FILLER_22_264
*1287 FILLER_22_27
*1288 FILLER_22_273
*1289 FILLER_22_286
*1290 FILLER_22_29
*1291 FILLER_22_299
*1292 FILLER_22_3
*1293 FILLER_22_306
*1294 FILLER_22_309
*1295 FILLER_22_314
*1296 FILLER_22_320
*1297 FILLER_22_332
*1298 FILLER_22_344
*1299 FILLER_22_356
*1300 FILLER_22_365
*1301 FILLER_22_377
*1302 FILLER_22_385
*1303 FILLER_22_41
*1304 FILLER_22_53
*1305 FILLER_22_65
*1306 FILLER_22_77
*1307 FILLER_22_83
*1308 FILLER_22_85
*1309 FILLER_22_9
*1310 FILLER_22_97
*1311 FILLER_23_105
*1312 FILLER_23_111
*1313 FILLER_23_113
*1314 FILLER_23_125
*1315 FILLER_23_137
*1316 FILLER_23_149
*1317 FILLER_23_15
*1318 FILLER_23_161
*1319 FILLER_23_167
*1320 FILLER_23_169
*1321 FILLER_23_173
*1322 FILLER_23_176
*1323 FILLER_23_183
*1324 FILLER_23_190
*1325 FILLER_23_197
*1326 FILLER_23_209
*1327 FILLER_23_221
*1328 FILLER_23_225
*1329 FILLER_23_237
*1330 FILLER_23_251
*1331 FILLER_23_255
*1332 FILLER_23_265
*1333 FILLER_23_27
*1334 FILLER_23_277
*1335 FILLER_23_281
*1336 FILLER_23_286
*1337 FILLER_23_293
*1338 FILLER_23_3
*1339 FILLER_23_300
*1340 FILLER_23_307
*1341 FILLER_23_313
*1342 FILLER_23_325
*1343 FILLER_23_333
*1344 FILLER_23_337
*1345 FILLER_23_349
*1346 FILLER_23_361
*1347 FILLER_23_373
*1348 FILLER_23_377
*1349 FILLER_23_381
*1350 FILLER_23_385
*1351 FILLER_23_39
*1352 FILLER_23_51
*1353 FILLER_23_55
*1354 FILLER_23_57
*1355 FILLER_23_69
*1356 FILLER_23_81
*1357 FILLER_23_93
*1358 FILLER_24_109
*1359 FILLER_24_121
*1360 FILLER_24_133
*1361 FILLER_24_139
*1362 FILLER_24_141
*1363 FILLER_24_15
*1364 FILLER_24_153
*1365 FILLER_24_165
*1366 FILLER_24_177
*1367 FILLER_24_185
*1368 FILLER_24_188
*1369 FILLER_24_194
*1370 FILLER_24_197
*1371 FILLER_24_201
*1372 FILLER_24_209
*1373 FILLER_24_222
*1374 FILLER_24_235
*1375 FILLER_24_248
*1376 FILLER_24_253
*1377 FILLER_24_266
*1378 FILLER_24_27
*1379 FILLER_24_274
*1380 FILLER_24_284
*1381 FILLER_24_29
*1382 FILLER_24_291
*1383 FILLER_24_298
*1384 FILLER_24_3
*1385 FILLER_24_304
*1386 FILLER_24_309
*1387 FILLER_24_321
*1388 FILLER_24_329
*1389 FILLER_24_333
*1390 FILLER_24_339
*1391 FILLER_24_354
*1392 FILLER_24_362
*1393 FILLER_24_365
*1394 FILLER_24_373
*1395 FILLER_24_384
*1396 FILLER_24_41
*1397 FILLER_24_53
*1398 FILLER_24_65
*1399 FILLER_24_77
*1400 FILLER_24_83
*1401 FILLER_24_85
*1402 FILLER_24_97
*1403 FILLER_25_105
*1404 FILLER_25_111
*1405 FILLER_25_113
*1406 FILLER_25_118
*1407 FILLER_25_124
*1408 FILLER_25_136
*1409 FILLER_25_148
*1410 FILLER_25_15
*1411 FILLER_25_160
*1412 FILLER_25_169
*1413 FILLER_25_181
*1414 FILLER_25_193
*1415 FILLER_25_197
*1416 FILLER_25_204
*1417 FILLER_25_216
*1418 FILLER_25_222
*1419 FILLER_25_225
*1420 FILLER_25_240
*1421 FILLER_25_247
*1422 FILLER_25_262
*1423 FILLER_25_27
*1424 FILLER_25_274
*1425 FILLER_25_281
*1426 FILLER_25_286
*1427 FILLER_25_293
*1428 FILLER_25_299
*1429 FILLER_25_3
*1430 FILLER_25_311
*1431 FILLER_25_323
*1432 FILLER_25_335
*1433 FILLER_25_337
*1434 FILLER_25_349
*1435 FILLER_25_361
*1436 FILLER_25_373
*1437 FILLER_25_381
*1438 FILLER_25_384
*1439 FILLER_25_39
*1440 FILLER_25_51
*1441 FILLER_25_55
*1442 FILLER_25_57
*1443 FILLER_25_69
*1444 FILLER_25_81
*1445 FILLER_25_93
*1446 FILLER_26_109
*1447 FILLER_26_121
*1448 FILLER_26_133
*1449 FILLER_26_139
*1450 FILLER_26_141
*1451 FILLER_26_153
*1452 FILLER_26_165
*1453 FILLER_26_177
*1454 FILLER_26_189
*1455 FILLER_26_195
*1456 FILLER_26_197
*1457 FILLER_26_202
*1458 FILLER_26_209
*1459 FILLER_26_21
*1460 FILLER_26_217
*1461 FILLER_26_223
*1462 FILLER_26_228
*1463 FILLER_26_232
*1464 FILLER_26_241