*SPEF "ieee 1481-1999"
*DESIGN "cbx_1__0_"
*DATE "11:11:11 Fri 11 11, 1111"
*VENDOR "OpenRCX"
*PROGRAM "Parallel Extraction"
*VERSION "1.0"
*DESIGN_FLOW "NAME_SCOPE LOCAL" "PIN_CAP NONE"
*DIVIDER /
*DELIMITER :
*BUS_DELIMITER []
*T_UNIT 1 NS
*C_UNIT 1 PF
*R_UNIT 1 OHM
*L_UNIT 1 HENRY

*NAME_MAP
*1 bottom_grid_top_width_0_height_0_subtile_0__pin_outpad_0_
*2 bottom_grid_top_width_0_height_0_subtile_1__pin_outpad_0_
*3 bottom_grid_top_width_0_height_0_subtile_2__pin_outpad_0_
*4 bottom_grid_top_width_0_height_0_subtile_3__pin_outpad_0_
*5 bottom_grid_top_width_0_height_0_subtile_4__pin_outpad_0_
*6 bottom_grid_top_width_0_height_0_subtile_5__pin_outpad_0_
*7 bottom_grid_top_width_0_height_0_subtile_6__pin_outpad_0_
*8 bottom_grid_top_width_0_height_0_subtile_7__pin_outpad_0_
*9 ccff_head
*10 ccff_tail
*11 chanx_left_in[0]
*12 chanx_left_in[10]
*13 chanx_left_in[11]
*14 chanx_left_in[12]
*15 chanx_left_in[13]
*16 chanx_left_in[14]
*17 chanx_left_in[15]
*18 chanx_left_in[16]
*19 chanx_left_in[17]
*20 chanx_left_in[18]
*21 chanx_left_in[1]
*22 chanx_left_in[2]
*23 chanx_left_in[3]
*24 chanx_left_in[4]
*25 chanx_left_in[5]
*26 chanx_left_in[6]
*27 chanx_left_in[7]
*28 chanx_left_in[8]
*29 chanx_left_in[9]
*30 chanx_left_out[0]
*31 chanx_left_out[10]
*32 chanx_left_out[11]
*33 chanx_left_out[12]
*34 chanx_left_out[13]
*35 chanx_left_out[14]
*36 chanx_left_out[15]
*37 chanx_left_out[16]
*38 chanx_left_out[17]
*39 chanx_left_out[18]
*40 chanx_left_out[1]
*41 chanx_left_out[2]
*42 chanx_left_out[3]
*43 chanx_left_out[4]
*44 chanx_left_out[5]
*45 chanx_left_out[6]
*46 chanx_left_out[7]
*47 chanx_left_out[8]
*48 chanx_left_out[9]
*49 chanx_right_in[0]
*50 chanx_right_in[10]
*51 chanx_right_in[11]
*52 chanx_right_in[12]
*53 chanx_right_in[13]
*54 chanx_right_in[14]
*55 chanx_right_in[15]
*56 chanx_right_in[16]
*57 chanx_right_in[17]
*58 chanx_right_in[18]
*59 chanx_right_in[1]
*60 chanx_right_in[2]
*61 chanx_right_in[3]
*62 chanx_right_in[4]
*63 chanx_right_in[5]
*64 chanx_right_in[6]
*65 chanx_right_in[7]
*66 chanx_right_in[8]
*67 chanx_right_in[9]
*68 chanx_right_out[0]
*69 chanx_right_out[10]
*70 chanx_right_out[11]
*71 chanx_right_out[12]
*72 chanx_right_out[13]
*73 chanx_right_out[14]
*74 chanx_right_out[15]
*75 chanx_right_out[16]
*76 chanx_right_out[17]
*77 chanx_right_out[18]
*78 chanx_right_out[1]
*79 chanx_right_out[2]
*80 chanx_right_out[3]
*81 chanx_right_out[4]
*82 chanx_right_out[5]
*83 chanx_right_out[6]
*84 chanx_right_out[7]
*85 chanx_right_out[8]
*86 chanx_right_out[9]
*87 pReset
*88 prog_clk
*89 top_grid_bottom_width_0_height_0_subtile_0__pin_I_10_
*90 top_grid_bottom_width_0_height_0_subtile_0__pin_I_2_
*91 top_grid_bottom_width_0_height_0_subtile_0__pin_I_6_
*94 _000_
*95 _001_
*96 _002_
*97 _003_
*98 _004_
*99 _005_
*100 _006_
*101 _007_
*102 _008_
*103 _009_
*104 _010_
*105 _011_
*106 _012_
*107 _013_
*108 _014_
*109 _015_
*110 _016_
*111 _017_
*112 _018_
*113 _019_
*114 _020_
*115 _021_
*116 _022_
*117 _023_
*118 _024_
*119 _025_
*120 _026_
*121 _027_
*122 _028_
*123 _029_
*124 _030_
*125 _031_
*126 _032_
*127 _033_
*128 _034_
*129 _035_
*130 _036_
*131 _037_
*132 _038_
*133 _039_
*134 _040_
*135 _041_
*136 _042_
*137 _043_
*138 _044_
*139 _045_
*140 _046_
*141 _047_
*142 _048_
*143 _049_
*144 _050_
*145 _051_
*146 _052_
*147 _053_
*148 _054_
*149 _055_
*150 _056_
*151 _057_
*152 _058_
*153 _059_
*154 _060_
*155 _061_
*156 _062_
*157 _063_
*158 _064_
*159 _065_
*160 _066_
*161 _067_
*162 _068_
*163 _069_
*164 _070_
*165 _071_
*166 _072_
*167 _073_
*168 _074_
*169 _075_
*170 _076_
*171 _077_
*172 _078_
*173 _079_
*174 _080_
*175 _081_
*176 _082_
*177 _083_
*178 _084_
*179 _085_
*180 _086_
*181 _087_
*182 _088_
*183 _089_
*184 _090_
*185 _091_
*186 _092_
*187 _093_
*188 _094_
*189 _095_
*190 _096_
*191 _097_
*192 _098_
*193 _099_
*194 _100_
*195 _101_
*196 _102_
*197 _103_
*198 _104_
*199 _105_
*200 _106_
*201 _107_
*202 _108_
*203 _109_
*204 _110_
*205 _111_
*206 _112_
*207 _113_
*208 _114_
*209 _115_
*210 _116_
*211 _117_
*212 _118_
*213 _119_
*214 _120_
*215 _121_
*216 _122_
*217 _123_
*218 _124_
*219 _125_
*220 _126_
*221 _127_
*222 _128_
*223 _129_
*224 _130_
*225 _131_
*226 _132_
*227 _133_
*228 _134_
*229 _135_
*230 _136_
*231 _137_
*232 _138_
*233 _139_
*234 _140_
*235 _141_
*236 _142_
*237 _143_
*238 _144_
*239 _145_
*240 _146_
*241 _147_
*242 _148_
*243 _149_
*244 _150_
*245 _151_
*246 _152_
*247 _153_
*248 _154_
*249 _155_
*250 _156_
*251 _157_
*252 _158_
*253 _159_
*254 _160_
*255 _161_
*256 _162_
*257 _163_
*258 _164_
*259 _165_
*260 _166_
*261 _167_
*262 _168_
*263 _169_
*264 _170_
*265 _171_
*266 _172_
*267 _173_
*268 _174_
*269 _175_
*270 _176_
*271 _177_
*272 _178_
*273 _179_
*274 _180_
*275 _181_
*276 _182_
*277 _183_
*278 _184_
*279 _185_
*280 _186_
*281 _187_
*282 _188_
*283 _189_
*284 _190_
*285 _191_
*286 _192_
*287 _193_
*288 _194_
*289 _195_
*290 _196_
*291 _197_
*292 _198_
*293 _199_
*294 _200_
*295 _201_
*296 mem_bottom_ipin_0\.DFFR_0_\.Q
*297 mem_bottom_ipin_0\.DFFR_1_\.Q
*298 mem_bottom_ipin_0\.DFFR_2_\.Q
*299 mem_bottom_ipin_0\.DFFR_3_\.Q
*300 mem_bottom_ipin_0\.DFFR_4_\.Q
*301 mem_bottom_ipin_0\.DFFR_5_\.Q
*302 mem_bottom_ipin_1\.DFFR_0_\.Q
*303 mem_bottom_ipin_1\.DFFR_1_\.Q
*304 mem_bottom_ipin_1\.DFFR_2_\.Q
*305 mem_bottom_ipin_1\.DFFR_3_\.Q
*306 mem_bottom_ipin_1\.DFFR_4_\.Q
*307 mem_bottom_ipin_1\.DFFR_5_\.Q
*308 mem_bottom_ipin_2\.DFFR_0_\.Q
*309 mem_bottom_ipin_2\.DFFR_1_\.Q
*310 mem_bottom_ipin_2\.DFFR_2_\.Q
*311 mem_bottom_ipin_2\.DFFR_3_\.Q
*312 mem_bottom_ipin_2\.DFFR_4_\.Q
*313 mem_bottom_ipin_2\.DFFR_5_\.Q
*314 mem_top_ipin_0\.DFFR_0_\.Q
*315 mem_top_ipin_0\.DFFR_1_\.Q
*316 mem_top_ipin_0\.DFFR_2_\.Q
*317 mem_top_ipin_0\.DFFR_3_\.Q
*318 mem_top_ipin_0\.DFFR_4_\.Q
*319 mem_top_ipin_0\.DFFR_5_\.Q
*320 mem_top_ipin_1\.DFFR_0_\.Q
*321 mem_top_ipin_1\.DFFR_1_\.Q
*322 mem_top_ipin_1\.DFFR_2_\.Q
*323 mem_top_ipin_1\.DFFR_3_\.Q
*324 mem_top_ipin_1\.DFFR_4_\.Q
*325 mem_top_ipin_1\.DFFR_5_\.Q
*326 mem_top_ipin_2\.DFFR_0_\.Q
*327 mem_top_ipin_2\.DFFR_1_\.Q
*328 mem_top_ipin_2\.DFFR_2_\.Q
*329 mem_top_ipin_2\.DFFR_3_\.Q
*330 mem_top_ipin_2\.DFFR_4_\.Q
*331 mem_top_ipin_2\.DFFR_5_\.Q
*332 mem_top_ipin_3\.DFFR_0_\.Q
*333 mem_top_ipin_3\.DFFR_1_\.Q
*334 mem_top_ipin_3\.DFFR_2_\.Q
*335 mem_top_ipin_3\.DFFR_3_\.Q
*336 mem_top_ipin_3\.DFFR_4_\.Q
*337 mem_top_ipin_3\.DFFR_5_\.Q
*338 mem_top_ipin_4\.DFFR_0_\.Q
*339 mem_top_ipin_4\.DFFR_1_\.Q
*340 mem_top_ipin_4\.DFFR_2_\.Q
*341 mem_top_ipin_4\.DFFR_3_\.Q
*342 mem_top_ipin_4\.DFFR_4_\.Q
*343 mem_top_ipin_4\.DFFR_5_\.Q
*344 mem_top_ipin_5\.DFFR_0_\.Q
*345 mem_top_ipin_5\.DFFR_1_\.Q
*346 mem_top_ipin_5\.DFFR_2_\.Q
*347 mem_top_ipin_5\.DFFR_3_\.Q
*348 mem_top_ipin_5\.DFFR_4_\.Q
*349 mem_top_ipin_5\.DFFR_5_\.Q
*350 mem_top_ipin_6\.DFFR_0_\.Q
*351 mem_top_ipin_6\.DFFR_1_\.Q
*352 mem_top_ipin_6\.DFFR_2_\.Q
*353 mem_top_ipin_6\.DFFR_3_\.Q
*354 mem_top_ipin_6\.DFFR_4_\.Q
*355 mem_top_ipin_6\.DFFR_5_\.Q
*356 mem_top_ipin_7\.DFFR_0_\.Q
*357 mem_top_ipin_7\.DFFR_1_\.Q
*358 mem_top_ipin_7\.DFFR_2_\.Q
*359 mem_top_ipin_7\.DFFR_3_\.Q
*360 mem_top_ipin_7\.DFFR_4_\.Q
*361 mux_bottom_ipin_0\.INVTX1_0_\.out
*362 mux_bottom_ipin_0\.INVTX1_1_\.out
*363 mux_bottom_ipin_0\.INVTX1_2_\.out
*364 mux_bottom_ipin_0\.INVTX1_3_\.out
*365 mux_bottom_ipin_0\.INVTX1_4_\.out
*366 mux_bottom_ipin_0\.INVTX1_5_\.out
*367 mux_bottom_ipin_0\.INVTX1_6_\.out
*368 mux_bottom_ipin_0\.INVTX1_7_\.out
*369 mux_bottom_ipin_0\.mux_2level_tapbuf_basis_input3_mem3_0_out
*370 mux_bottom_ipin_0\.mux_2level_tapbuf_basis_input3_mem3_1_out
*371 mux_bottom_ipin_0\.mux_2level_tapbuf_basis_input3_mem3_2_out
*372 mux_bottom_ipin_0\.mux_2level_tapbuf_basis_input3_mem3_3_out
*373 mux_bottom_ipin_1\.INVTX1_2_\.out
*374 mux_bottom_ipin_1\.INVTX1_3_\.out
*375 mux_bottom_ipin_1\.INVTX1_4_\.out
*376 mux_bottom_ipin_1\.INVTX1_5_\.out
*377 mux_bottom_ipin_1\.INVTX1_6_\.out
*378 mux_bottom_ipin_1\.INVTX1_7_\.out
*379 mux_bottom_ipin_1\.mux_2level_tapbuf_basis_input3_mem3_0_out
*380 mux_bottom_ipin_1\.mux_2level_tapbuf_basis_input3_mem3_1_out
*381 mux_bottom_ipin_1\.mux_2level_tapbuf_basis_input3_mem3_2_out
*382 mux_bottom_ipin_1\.mux_2level_tapbuf_basis_input3_mem3_3_out
*383 mux_bottom_ipin_2\.INVTX1_2_\.out
*384 mux_bottom_ipin_2\.INVTX1_3_\.out
*385 mux_bottom_ipin_2\.INVTX1_4_\.out
*386 mux_bottom_ipin_2\.INVTX1_5_\.out
*387 mux_bottom_ipin_2\.mux_2level_tapbuf_basis_input3_mem3_0_out
*388 mux_bottom_ipin_2\.mux_2level_tapbuf_basis_input3_mem3_1_out
*389 mux_bottom_ipin_2\.mux_2level_tapbuf_basis_input3_mem3_2_out
*390 mux_top_ipin_0\.INVTX1_2_\.out
*391 mux_top_ipin_0\.INVTX1_3_\.out
*392 mux_top_ipin_0\.INVTX1_4_\.out
*393 mux_top_ipin_0\.INVTX1_5_\.out
*394 mux_top_ipin_0\.INVTX1_6_\.out
*395 mux_top_ipin_0\.INVTX1_7_\.out
*396 mux_top_ipin_0\.mux_2level_tapbuf_basis_input3_mem3_0_out
*397 mux_top_ipin_0\.mux_2level_tapbuf_basis_input3_mem3_1_out
*398 mux_top_ipin_0\.mux_2level_tapbuf_basis_input3_mem3_2_out
*399 mux_top_ipin_0\.mux_2level_tapbuf_basis_input3_mem3_3_out
*400 mux_top_ipin_1\.INVTX1_2_\.out
*401 mux_top_ipin_1\.INVTX1_3_\.out
*402 mux_top_ipin_1\.INVTX1_4_\.out
*403 mux_top_ipin_1\.INVTX1_5_\.out
*404 mux_top_ipin_1\.INVTX1_6_\.out
*405 mux_top_ipin_1\.INVTX1_7_\.out
*406 mux_top_ipin_1\.mux_2level_tapbuf_basis_input3_mem3_0_out
*407 mux_top_ipin_1\.mux_2level_tapbuf_basis_input3_mem3_1_out
*408 mux_top_ipin_1\.mux_2level_tapbuf_basis_input3_mem3_2_out
*409 mux_top_ipin_1\.mux_2level_tapbuf_basis_input3_mem3_3_out
*410 mux_top_ipin_2\.INVTX1_2_\.out
*411 mux_top_ipin_2\.INVTX1_3_\.out
*412 mux_top_ipin_2\.INVTX1_6_\.out
*413 mux_top_ipin_2\.INVTX1_7_\.out
*414 mux_top_ipin_2\.mux_2level_tapbuf_basis_input3_mem3_0_out
*415 mux_top_ipin_2\.mux_2level_tapbuf_basis_input3_mem3_1_out
*416 mux_top_ipin_2\.mux_2level_tapbuf_basis_input3_mem3_2_out
*417 mux_top_ipin_2\.mux_2level_tapbuf_basis_input3_mem3_3_out
*418 mux_top_ipin_3\.mux_2level_tapbuf_basis_input3_mem3_0_out
*419 mux_top_ipin_3\.mux_2level_tapbuf_basis_input3_mem3_1_out
*420 mux_top_ipin_3\.mux_2level_tapbuf_basis_input3_mem3_2_out
*421 mux_top_ipin_3\.mux_2level_tapbuf_basis_input3_mem3_3_out
*422 mux_top_ipin_4\.mux_2level_tapbuf_basis_input3_mem3_0_out
*423 mux_top_ipin_4\.mux_2level_tapbuf_basis_input3_mem3_1_out
*424 mux_top_ipin_4\.mux_2level_tapbuf_basis_input3_mem3_2_out
*425 mux_top_ipin_4\.mux_2level_tapbuf_basis_input3_mem3_3_out
*426 mux_top_ipin_5\.INVTX1_4_\.out
*427 mux_top_ipin_5\.INVTX1_5_\.out
*428 mux_top_ipin_5\.INVTX1_6_\.out
*429 mux_top_ipin_5\.INVTX1_7_\.out
*430 mux_top_ipin_5\.mux_2level_tapbuf_basis_input3_mem3_0_out
*431 mux_top_ipin_5\.mux_2level_tapbuf_basis_input3_mem3_1_out
*432 mux_top_ipin_5\.mux_2level_tapbuf_basis_input3_mem3_2_out
*433 mux_top_ipin_5\.mux_2level_tapbuf_basis_input3_mem3_3_out
*434 mux_top_ipin_6\.mux_2level_tapbuf_basis_input3_mem3_0_out
*435 mux_top_ipin_6\.mux_2level_tapbuf_basis_input3_mem3_1_out
*436 mux_top_ipin_6\.mux_2level_tapbuf_basis_input3_mem3_2_out
*437 mux_top_ipin_6\.mux_2level_tapbuf_basis_input3_mem3_3_out
*438 mux_top_ipin_7\.mux_2level_tapbuf_basis_input3_mem3_0_out
*439 mux_top_ipin_7\.mux_2level_tapbuf_basis_input3_mem3_1_out
*440 mux_top_ipin_7\.mux_2level_tapbuf_basis_input3_mem3_2_out
*441 mux_top_ipin_7\.mux_2level_tapbuf_basis_input3_mem3_3_out
*442 net1
*443 net10
*444 net100
*445 net101
*446 net11
*447 net12
*448 net13
*449 net14
*450 net15
*451 net16
*452 net17
*453 net18
*454 net19
*455 net2
*456 net20
*457 net21
*458 net22
*459 net23
*460 net24
*461 net25
*462 net26
*463 net27
*464 net28
*465 net29
*466 net3
*467 net30
*468 net31
*469 net32
*470 net33
*471 net34
*472 net35
*473 net36
*474 net37
*475 net38
*476 net39
*477 net4
*478 net40
*479 net41
*480 net42
*481 net43
*482 net44
*483 net45
*484 net46
*485 net47
*486 net48
*487 net49
*488 net5
*489 net50
*490 net51
*491 net52
*492 net53
*493 net54
*494 net55
*495 net56
*496 net57
*497 net58
*498 net59
*499 net6
*500 net60
*501 net61
*502 net62
*503 net63
*504 net64
*505 net65
*506 net66
*507 net67
*508 net68
*509 net69
*510 net7
*511 net70
*512 net71
*513 net72
*514 net73
*515 net74
*516 net75
*517 net76
*518 net77
*519 net78
*520 net79
*521 net8
*522 net80
*523 net81
*524 net82
*525 net83
*526 net84
*527 net85
*528 net86
*529 net87
*530 net88
*531 net89
*532 net9
*533 net90
*534 net91
*535 net92
*536 net93
*537 net94
*538 net95
*539 net96
*540 net97
*541 net98
*542 net99
*543 ANTENNA__223__A
*544 ANTENNA__224__A
*545 ANTENNA__226__A
*546 ANTENNA__227__A
*547 ANTENNA__228__A
*548 ANTENNA__231__A
*549 ANTENNA__232__A
*550 ANTENNA__235__A
*551 ANTENNA__236__A
*552 ANTENNA__237__A
*553 ANTENNA__239__A
*554 ANTENNA__240__A
*555 ANTENNA__241__A
*556 ANTENNA__242__A
*557 ANTENNA__243__A
*558 ANTENNA__244__A
*559 ANTENNA__245__A
*560 ANTENNA__248__A
*561 ANTENNA__249__A
*562 ANTENNA__252__A
*563 ANTENNA__253__A
*564 ANTENNA__256__A
*565 ANTENNA__257__A
*566 ANTENNA__259__A
*567 ANTENNA__260__A
*568 ANTENNA__261__A
*569 ANTENNA__263__A
*570 ANTENNA__264__A
*571 ANTENNA__265__A
*572 ANTENNA__267__A
*573 ANTENNA__268__A
*574 ANTENNA__269__A
*575 ANTENNA__271__A
*576 ANTENNA__272__A
*577 ANTENNA__273__A
*578 ANTENNA__275__A
*579 ANTENNA__276__A
*580 ANTENNA__277__A
*581 ANTENNA__279__A
*582 ANTENNA__280__A
*583 ANTENNA__281__A
*584 ANTENNA__283__A
*585 ANTENNA__284__A
*586 ANTENNA__285__A
*587 ANTENNA__287__A
*588 ANTENNA__288__A
*589 ANTENNA__289__A
*590 ANTENNA__291__A
*591 ANTENNA__292__A
*592 ANTENNA__293__A
*593 ANTENNA__295__A
*594 ANTENNA__299__A
*595 ANTENNA__303__A
*596 ANTENNA__307__A
*597 ANTENNA__308__A
*598 ANTENNA__309__A
*599 ANTENNA__311__A
*600 ANTENNA__312__A
*601 ANTENNA__313__A
*602 ANTENNA__315__A
*603 ANTENNA__316__A
*604 ANTENNA__317__A
*605 ANTENNA__331__A
*606 ANTENNA__333__A
*607 ANTENNA__334__A
*608 ANTENNA__335__A
*609 ANTENNA__337__A
*610 ANTENNA__339__A
*611 ANTENNA__341__A
*612 ANTENNA__343__A
*613 ANTENNA__344__A
*614 ANTENNA__348__A
*615 ANTENNA__353__A
*616 ANTENNA__354__A
*617 ANTENNA__356__A
*618 ANTENNA__357__A
*619 ANTENNA__359__A
*620 ANTENNA__360__A
*621 ANTENNA__361__A
*622 ANTENNA__363__A
*623 ANTENNA__364__A
*624 ANTENNA__365__A
*625 ANTENNA__366__A
*626 ANTENNA__368__A
*627 ANTENNA__369__A
*628 ANTENNA__370__A
*629 ANTENNA__371__A
*630 ANTENNA__373__A
*631 ANTENNA__374__A
*632 ANTENNA__375__A
*633 ANTENNA__378__A
*634 ANTENNA__382__A
*635 ANTENNA__383__A
*636 ANTENNA__384__A
*637 ANTENNA__386__A
*638 ANTENNA__387__A
*639 ANTENNA__389__A
*640 ANTENNA__390__A
*641 ANTENNA__391__A
*642 ANTENNA__393__A
*643 ANTENNA__394__A
*644 ANTENNA__395__A
*645 ANTENNA__396__A
*646 ANTENNA__397__A
*647 ANTENNA__398__A
*648 ANTENNA__399__A
*649 ANTENNA__400__A
*650 ANTENNA__401__A
*651 ANTENNA__402__A
*652 ANTENNA__404__A
*653 ANTENNA__405__A
*654 ANTENNA__406__A
*655 ANTENNA__407__A
*656 ANTENNA__408__A
*657 ANTENNA__409__A
*658 ANTENNA__410__A
*659 ANTENNA__411__A
*660 ANTENNA__412__A
*661 ANTENNA__413__A
*662 ANTENNA__415__A
*663 ANTENNA__416__A
*664 ANTENNA__417__A
*665 ANTENNA__418__A
*666 ANTENNA__419__A
*667 ANTENNA__420__A
*668 ANTENNA__421__A
*669 ANTENNA__422__A
*670 ANTENNA__423__A
*671 ANTENNA__424__A
*672 ANTENNA__426__A
*673 ANTENNA__427__A
*674 ANTENNA__428__A
*675 ANTENNA__429__A
*676 ANTENNA__430__A
*677 ANTENNA__431__A
*678 ANTENNA__432__A
*679 ANTENNA__433__A
*680 ANTENNA__434__A
*681 ANTENNA__435__A
*682 ANTENNA__436__A
*683 ANTENNA__447__A
*684 ANTENNA__448__A
*685 ANTENNA__449__A
*686 ANTENNA__450__A
*687 ANTENNA__451__A
*688 ANTENNA__452__A
*689 ANTENNA__453__A
*690 ANTENNA__454__A
*691 ANTENNA__455__A
*692 ANTENNA__456__A
*693 ANTENNA__457__A
*694 ANTENNA__464__CLK
*695 ANTENNA__465__CLK
*696 ANTENNA__466__CLK
*697 ANTENNA__466__D
*698 ANTENNA__467__CLK
*699 ANTENNA__468__CLK
*700 ANTENNA__468__D
*701 ANTENNA__469__CLK
*702 ANTENNA__470__CLK
*703 ANTENNA__471__CLK
*704 ANTENNA__472__CLK
*705 ANTENNA__473__CLK
*706 ANTENNA__474__CLK
*707 ANTENNA__475__CLK
*708 ANTENNA__475__D
*709 ANTENNA__476__CLK
*710 ANTENNA__477__CLK
*711 ANTENNA__478__CLK
*712 ANTENNA__478__D
*713 ANTENNA__479__CLK
*714 ANTENNA__479__D
*715 ANTENNA__480__CLK
*716 ANTENNA__480__D
*717 ANTENNA__481__CLK
*718 ANTENNA__482__CLK
*719 ANTENNA__483__CLK
*720 ANTENNA__484__CLK
*721 ANTENNA__485__CLK
*722 ANTENNA__486__CLK
*723 ANTENNA__486__D
*724 ANTENNA__487__CLK
*725 ANTENNA__488__CLK
*726 ANTENNA__489__CLK
*727 ANTENNA__490__CLK
*728 ANTENNA__490__D
*729 ANTENNA__490__RESET_B
*730 ANTENNA__491__CLK
*731 ANTENNA__491__D
*732 ANTENNA__492__CLK
*733 ANTENNA__492__D
*734 ANTENNA__493__CLK
*735 ANTENNA__494__CLK
*736 ANTENNA__495__CLK
*737 ANTENNA__496__CLK
*738 ANTENNA__496__D
*739 ANTENNA__497__CLK
*740 ANTENNA__497__D
*741 ANTENNA__498__CLK
*742 ANTENNA__498__D
*743 ANTENNA__499__CLK
*744 ANTENNA__500__CLK
*745 ANTENNA__501__CLK
*746 ANTENNA__502__CLK
*747 ANTENNA__502__D
*748 ANTENNA__503__CLK
*749 ANTENNA__503__D
*750 ANTENNA__504__CLK
*751 ANTENNA__504__D
*752 ANTENNA__505__CLK
*753 ANTENNA__506__CLK
*754 ANTENNA__507__CLK
*755 ANTENNA__508__CLK
*756 ANTENNA__508__D
*757 ANTENNA__509__CLK
*758 ANTENNA__509__D
*759 ANTENNA__510__CLK
*760 ANTENNA__511__CLK
*761 ANTENNA__512__CLK
*762 ANTENNA__512__D
*763 ANTENNA__513__CLK
*764 ANTENNA__514__CLK
*765 ANTENNA__514__D
*766 ANTENNA__515__CLK
*767 ANTENNA__515__D
*768 ANTENNA__516__CLK
*769 ANTENNA__516__D
*770 ANTENNA__517__CLK
*771 ANTENNA__518__CLK
*772 ANTENNA__519__CLK
*773 ANTENNA__520__CLK
*774 ANTENNA__520__D
*775 ANTENNA__521__CLK
*776 ANTENNA__522__CLK
*777 ANTENNA__522__D
*778 ANTENNA__523__CLK
*779 ANTENNA__523__RESET_B
*780 ANTENNA__524__CLK
*781 ANTENNA__525__CLK
*782 ANTENNA__526__CLK
*783 ANTENNA__527__CLK
*784 ANTENNA__528__CLK
*785 ANTENNA__529__CLK
*786 ANTENNA__541__A
*787 ANTENNA__542__A
*788 ANTENNA__543__A
*789 ANTENNA__544__A
*790 ANTENNA__545__A
*791 ANTENNA__546__A
*792 ANTENNA__547__A
*793 ANTENNA__548__A
*794 ANTENNA__549__A
*795 ANTENNA__550__A
*796 ANTENNA__551__A
*797 ANTENNA__555__A
*798 ANTENNA__556__A
*799 ANTENNA__557__A
*800 ANTENNA__558__A
*801 ANTENNA__560__A
*802 ANTENNA__562__A
*803 ANTENNA__564__A
*804 ANTENNA__566__A
*805 ANTENNA__567__A
*806 ANTENNA__572__A
*807 ANTENNA__573__A
*808 ANTENNA__574__A
*809 ANTENNA__575__A
*810 ANTENNA__613__A
*811 ANTENNA__621__A
*812 ANTENNA__628__A
*813 ANTENNA__668__A
*814 ANTENNA__685__A
*815 ANTENNA__693__A
*816 ANTENNA_input10_A
*817 ANTENNA_input11_A
*818 ANTENNA_input12_A
*819 ANTENNA_input13_A
*820 ANTENNA_input14_A
*821 ANTENNA_input15_A
*822 ANTENNA_input16_A
*823 ANTENNA_input17_A
*824 ANTENNA_input18_A
*825 ANTENNA_input19_A
*826 ANTENNA_input1_A
*827 ANTENNA_input20_A
*828 ANTENNA_input21_A
*829 ANTENNA_input22_A
*830 ANTENNA_input23_A
*831 ANTENNA_input24_A
*832 ANTENNA_input25_A
*833 ANTENNA_input26_A
*834 ANTENNA_input27_A
*835 ANTENNA_input28_A
*836 ANTENNA_input29_A
*837 ANTENNA_input2_A
*838 ANTENNA_input30_A
*839 ANTENNA_input31_A
*840 ANTENNA_input32_A
*841 ANTENNA_input33_A
*842 ANTENNA_input34_A
*843 ANTENNA_input35_A
*844 ANTENNA_input36_A
*845 ANTENNA_input37_A
*846 ANTENNA_input38_A
*847 ANTENNA_input39_A
*848 ANTENNA_input3_A
*849 ANTENNA_input40_A
*850 ANTENNA_input4_A
*851 ANTENNA_input5_A
*852 ANTENNA_input6_A
*853 ANTENNA_input7_A
*854 ANTENNA_input8_A
*855 ANTENNA_input9_A
*856 ANTENNA_output49_A
*857 ANTENNA_output53_A
*858 ANTENNA_output55_A
*859 ANTENNA_output56_A
*860 ANTENNA_output57_A
*861 ANTENNA_output68_A
*862 ANTENNA_output72_A
*863 ANTENNA_output76_A
*864 ANTENNA_output78_A
*865 ANTENNA_output81_A
*866 ANTENNA_output82_A
*867 ANTENNA_output85_A
*868 FILLER_0_104
*869 FILLER_0_110
*870 FILLER_0_113
*871 FILLER_0_119
*872 FILLER_0_127
*873 FILLER_0_130
*874 FILLER_0_138
*875 FILLER_0_141
*876 FILLER_0_149
*877 FILLER_0_15
*878 FILLER_0_157
*879 FILLER_0_161
*880 FILLER_0_166
*881 FILLER_0_169
*882 FILLER_0_173
*883 FILLER_0_183
*884 FILLER_0_189
*885 FILLER_0_194
*886 FILLER_0_197
*887 FILLER_0_201
*888 FILLER_0_21
*889 FILLER_0_222
*890 FILLER_0_225
*891 FILLER_0_247
*892 FILLER_0_251
*893 FILLER_0_253
*894 FILLER_0_26
*895 FILLER_0_275
*896 FILLER_0_279
*897 FILLER_0_281
*898 FILLER_0_285
*899 FILLER_0_29
*900 FILLER_0_3
*901 FILLER_0_306
*902 FILLER_0_309
*903 FILLER_0_33
*904 FILLER_0_331
*905 FILLER_0_335
*906 FILLER_0_337
*907 FILLER_0_359
*908 FILLER_0_363
*909 FILLER_0_365
*910 FILLER_0_37
*911 FILLER_0_371
*912 FILLER_0_379
*913 FILLER_0_385
*914 FILLER_0_390
*915 FILLER_0_393
*916 FILLER_0_405
*917 FILLER_0_42
*918 FILLER_0_54
*919 FILLER_0_57
*920 FILLER_0_63
*921 FILLER_0_75
*922 FILLER_0_79
*923 FILLER_0_82
*924 FILLER_0_85
*925 FILLER_0_91
*926 FILLER_0_98
*927 FILLER_10_109
*928 FILLER_10_121
*929 FILLER_10_133
*930 FILLER_10_139
*931 FILLER_10_141
*932 FILLER_10_15
*933 FILLER_10_153
*934 FILLER_10_159
*935 FILLER_10_166
*936 FILLER_10_173
*937 FILLER_10_180
*938 FILLER_10_187
*939 FILLER_10_194
*940 FILLER_10_197
*941 FILLER_10_201
*942 FILLER_10_205
*943 FILLER_10_212
*944 FILLER_10_239
*945 FILLER_10_245
*946 FILLER_10_251
*947 FILLER_10_253
*948 FILLER_10_27
*949 FILLER_10_276
*950 FILLER_10_282
*951 FILLER_10_29
*952 FILLER_10_3
*953 FILLER_10_304
*954 FILLER_10_309
*955 FILLER_10_313
*956 FILLER_10_319
*957 FILLER_10_325
*958 FILLER_10_331
*959 FILLER_10_337
*960 FILLER_10_343
*961 FILLER_10_349
*962 FILLER_10_355
*963 FILLER_10_361
*964 FILLER_10_365
*965 FILLER_10_369
*966 FILLER_10_375
*967 FILLER_10_381
*968 FILLER_10_387
*969 FILLER_10_393
*970 FILLER_10_399
*971 FILLER_10_405
*972 FILLER_10_41
*973 FILLER_10_53
*974 FILLER_10_65
*975 FILLER_10_77
*976 FILLER_10_83
*977 FILLER_10_85
*978 FILLER_10_97
*979 FILLER_11_108
*980 FILLER_11_113
*981 FILLER_11_125
*982 FILLER_11_133
*983 FILLER_11_137
*984 FILLER_11_150
*985 FILLER_11_163
*986 FILLER_11_167
*987 FILLER_11_169
*988 FILLER_11_180
*989 FILLER_11_19
*990 FILLER_11_193
*991 FILLER_11_222
*992 FILLER_11_225
*993 FILLER_11_249
*994 FILLER_11_274
*995 FILLER_11_281
*996 FILLER_11_3
*997 FILLER_11_306
*998 FILLER_11_31
*999 FILLER_11_330
*1000 FILLER_11_337
*1001 FILLER_11_341
*1002 FILLER_11_347
*1003 FILLER_11_353
*1004 FILLER_11_359
*1005 FILLER_11_365
*1006 FILLER_11_371
*1007 FILLER_11_377
*1008 FILLER_11_383
*1009 FILLER_11_389
*1010 FILLER_11_393
*1011 FILLER_11_398
*1012 FILLER_11_405
*1013 FILLER_11_43
*1014 FILLER_11_55
*1015 FILLER_11_57
*1016 FILLER_11_69
*1017 FILLER_11_7
*1018 FILLER_11_81
*1019 FILLER_11_93
*1020 FILLER_12_109
*1021 FILLER_12_121
*1022 FILLER_12_133
*1023 FILLER_12_138
*1024 FILLER_12_141
*1025 FILLER_12_146
*1026 FILLER_12_153
*1027 FILLER_12_166
*1028 FILLER_12_170
*1029 FILLER_12_174
*1030 FILLER_12_181
*1031 FILLER_12_194
*1032 FILLER_12_197
*1033 FILLER_12_208
*1034 FILLER_12_21
*1035 FILLER_12_214
*1036 FILLER_12_238
*1037 FILLER_12_245
*1038 FILLER_12_251
*1039 FILLER_12_253
*1040 FILLER_12_258
*1041 FILLER_12_265
*1042 FILLER_12_27
*1043 FILLER_12_29
*1044 FILLER_12_292
*1045 FILLER_12_298
*1046 FILLER_12_3
*1047 FILLER_12_304
*1048 FILLER_12_309
*1049 FILLER_12_334
*1050 FILLER_12_340
*1051 FILLER_12_346
*1052 FILLER_12_352
*1053 FILLER_12_358
*1054 FILLER_12_365
*1055 FILLER_12_369
*1056 FILLER_12_375
*1057 FILLER_12_381
*1058 FILLER_12_387
*1059 FILLER_12_393
*1060 FILLER_12_399
*1061 FILLER_12_405
*1062 FILLER_12_41
*1063 FILLER_12_53
*1064 FILLER_12_65
*1065 FILLER_12_77
*1066 FILLER_12_83
*1067 FILLER_12_85
*1068 FILLER_12_9
*1069 FILLER_12_97
*1070 FILLER_13_105
*1071 FILLER_13_111
*1072 FILLER_13_113
*1073 FILLER_13_125
*1074 FILLER_13_133
*1075 FILLER_13_139
*1076 FILLER_13_146
*1077 FILLER_13_15
*1078 FILLER_13_153
*1079 FILLER_13_166
*1080 FILLER_13_169
*1081 FILLER_13_180
*1082 FILLER_13_188
*1083 FILLER_13_198
*1084 FILLER_13_222
*1085 FILLER_13_225
*1086 FILLER_13_250
*1087 FILLER_13_27
*1088 FILLER_13_277
*1089 FILLER_13_281
*1090 FILLER_13_3
*1091 FILLER_13_306
*1092 FILLER_13_312
*1093 FILLER_13_318
*1094 FILLER_13_324
*1095 FILLER_13_330
*1096 FILLER_13_337
*1097 FILLER_13_341
*1098 FILLER_13_347
*1099 FILLER_13_35
*1100 FILLER_13_353
*1101 FILLER_13_359
*1102 FILLER_13_365
*1103 FILLER_13_371
*1104 FILLER_13_377
*1105 FILLER_13_383
*1106 FILLER_13_389
*1107 FILLER_13_393
*1108 FILLER_13_397
*1109 FILLER_13_405
*1110 FILLER_13_41
*1111 FILLER_13_47
*1112 FILLER_13_55
*1113 FILLER_13_57
*1114 FILLER_13_69
*1115 FILLER_13_81
*1116 FILLER_13_93
*1117 FILLER_14_109
*1118 FILLER_14_121
*1119 FILLER_14_131
*1120 FILLER_14_138
*1121 FILLER_14_141
*1122 FILLER_14_145
*1123 FILLER_14_149
*1124 FILLER_14_15
*1125 FILLER_14_162
*1126 FILLER_14_171
*1127 FILLER_14_184
*1128 FILLER_14_190
*1129 FILLER_14_194
*1130 FILLER_14_197
*1131 FILLER_14_203
*1132 FILLER_14_207
*1133 FILLER_14_232
*1134 FILLER_14_245
*1135 FILLER_14_251
*1136 FILLER_14_253
*1137 FILLER_14_258
*1138 FILLER_14_27
*1139 FILLER_14_285
*1140 FILLER_14_29
*1141 FILLER_14_292
*1142 FILLER_14_299
*1143 FILLER_14_3
*1144 FILLER_14_305
*1145 FILLER_14_309
*1146 FILLER_14_313
*1147 FILLER_14_319
*1148 FILLER_14_325
*1149 FILLER_14_331
*1150 FILLER_14_338
*1151 FILLER_14_344
*1152 FILLER_14_350
*1153 FILLER_14_356
*1154 FILLER_14_362
*1155 FILLER_14_365
*1156 FILLER_14_369
*1157 FILLER_14_375
*1158 FILLER_14_381
*1159 FILLER_14_387
*1160 FILLER_14_393
*1161 FILLER_14_399
*1162 FILLER_14_405
*1163 FILLER_14_41
*1164 FILLER_14_53
*1165 FILLER_14_65
*1166 FILLER_14_77
*1167 FILLER_14_83
*1168 FILLER_14_85
*1169 FILLER_14_97
*1170 FILLER_15_105
*1171 FILLER_15_111
*1172 FILLER_15_113
*1173 FILLER_15_125
*1174 FILLER_15_133
*1175 FILLER_15_139
*1176 FILLER_15_146
*1177 FILLER_15_159
*1178 FILLER_15_166
*1179 FILLER_15_169
*1180 FILLER_15_173
*1181 FILLER_15_183
*1182 FILLER_15_196
*1183 FILLER_15_209
*1184 FILLER_15_21
*1185 FILLER_15_222
*1186 FILLER_15_225
*1187 FILLER_15_247
*1188 FILLER_15_260
*1189 FILLER_15_273
*1190 FILLER_15_279
*1191 FILLER_15_281
*1192 FILLER_15_3
*1193 FILLER_15_308
*1194 FILLER_15_315
*1195 FILLER_15_321
*1196 FILLER_15_327
*1197 FILLER_15_33
*1198 FILLER_15_333
*1199 FILLER_15_337
*1200 FILLER_15_341
*1201 FILLER_15_352
*1202 FILLER_15_358
*1203 FILLER_15_364
*1204 FILLER_15_367
*1205 FILLER_15_371
*1206 FILLER_15_374
*1207 FILLER_15_384
*1208 FILLER_15_390
*1209 FILLER_15_393
*1210 FILLER_15_405
*1211 FILLER_15_45
*1212 FILLER_15_53
*1213 FILLER_15_57
*1214 FILLER_15_69
*1215 FILLER_15_81
*1216 FILLER_15_9
*1217 FILLER_15_93
*1218 FILLER_16_109
*1219 FILLER_16_115
*1220 FILLER_16_118
*1221 FILLER_16_125
*1222 FILLER_16_131
*1223 FILLER_16_138
*1224 FILLER_16_141
*1225 FILLER_16_146
*1226 FILLER_16_15
*1227 FILLER_16_159
*1228 FILLER_16_174
*1229 FILLER_16_181
*1230 FILLER_16_194
*1231 FILLER_16_197
*1232 FILLER_16_203
*1233 FILLER_16_217
*1234 FILLER_16_230
*1235 FILLER_16_243
*1236 FILLER_16_250
*1237 FILLER_16_253
*1238 FILLER_16_264
*1239 FILLER_16_27
*1240 FILLER_16_277
*1241 FILLER_16_285
*1242 FILLER_16_29
*1243 FILLER_16_293
*1244 FILLER_16_3
*1245 FILLER_16_300
*1246 FILLER_16_306
*1247 FILLER_16_309
*1248 FILLER_16_314
*1249 FILLER_16_321
*1250 FILLER_16_327
*1251 FILLER_16_333
*1252 FILLER_16_339
*1253 FILLER_16_345
*1254 FILLER_16_357
*1255 FILLER_16_363
*1256 FILLER_16_365
*1257 FILLER_16_370
*1258 FILLER_16_376
*1259 FILLER_16_382
*1260 FILLER_16_388
*1261 FILLER_16_392
*1262 FILLER_16_395
*1263 FILLER_16_405
*1264 FILLER_16_41
*1265 FILLER_16_53
*1266 FILLER_16_65
*1267 FILLER_16_77
*1268 FILLER_16_83
*1269 FILLER_16_85
*1270 FILLER_16_97
*1271 FILLER_17_109
*1272 FILLER_17_113
*1273 FILLER_17_123
*1274 FILLER_17_129
*1275 FILLER_17_136
*1276 FILLER_17_142
*1277 FILLER_17_146
*1278 FILLER_17_15
*1279 FILLER_17_153
*1280 FILLER_17_166
*1281 FILLER_17_169
*1282 FILLER_17_173
*1283 FILLER_17_183
*1284 FILLER_17_187
*1285 FILLER_17_197
*1286 FILLER_17_206
*1287 FILLER_17_219
*1288 FILLER_17_223
*1289 FILLER_17_225
*1290 FILLER_17_235
*1291 FILLER_17_248
*1292 FILLER_17_261
*1293 FILLER_17_267
*1294 FILLER_17_27
*1295 FILLER_17_277
*1296 FILLER_17_281
*1297 FILLER_17_292
*1298 FILLER_17_299
*1299 FILLER_17_3
*1300 FILLER_17_306
*1301 FILLER_17_313
*1302 FILLER_17_320
*1303 FILLER_17_327
*1304 FILLER_17_334
*1305 FILLER_17_337
*1306 FILLER_17_341
*1307 FILLER_17_347
*1308 FILLER_17_353
*1309 FILLER_17_365
*1310 FILLER_17_377
*1311 FILLER_17_385
*1312 FILLER_17_39
*1313 FILLER_17_390
*1314 FILLER_17_393
*1315 FILLER_17_397
*1316 FILLER_17_405
*1317 FILLER_17_47
*1318 FILLER_17_53
*1319 FILLER_17_57
*1320 FILLER_17_61
*1321 FILLER_17_73
*1322 FILLER_17_85
*1323 FILLER_17_97
*1324 FILLER_18_109
*1325 FILLER_18_117
*1326 FILLER_18_120
*1327 FILLER_18_126
*1328 FILLER_18_132
*1329 FILLER_18_138
*1330 FILLER_18_141
*1331 FILLER_18_148
*1332 FILLER_18_15
*1333 FILLER_18_155
*1334 FILLER_18_162
*1335 FILLER_18_175
*1336 FILLER_18_183
*1337 FILLER_18_193
*1338 FILLER_18_197
*1339 FILLER_18_212
*1340 FILLER_18_216
*1341 FILLER_18_230
*1342 FILLER_18_234
*1343 FILLER_18_248
*1344 FILLER_18_253
*1345 FILLER_18_264
*1346 FILLER_18_268
*1347 FILLER_18_27
*1348 FILLER_18_278
*1349 FILLER_18_29
*1350 FILLER_18_291
*1351 FILLER_18_3
*1352 FILLER_18_306
*1353 FILLER_18_309
*1354 FILLER_18_314
*1355 FILLER_18_321
*1356 FILLER_18_328
*1357 FILLER_18_335
*1358 FILLER_18_342
*1359 FILLER_18_348
*1360 FILLER_18_360
*1361 FILLER_18_365
*1362 FILLER_18_377
*1363 FILLER_18_389
*1364 FILLER_18_393
*1365 FILLER_18_396
*1366 FILLER_18_402
*1367 FILLER_18_406
*1368 FILLER_18_41
*1369 FILLER_18_53
*1370 FILLER_18_65
*1371 FILLER_18_77
*1372 FILLER_18_83
*1373 FILLER_18_85
*1374 FILLER_18_97
*1375 FILLER_19_105
*1376 FILLER_19_111
*1377 FILLER_19_113
*1378 FILLER_19_125
*1379 FILLER_19_128
*1380 FILLER_19_134
*1381 FILLER_19_140
*1382 FILLER_19_146
*1383 FILLER_19_153
*1384 FILLER_19_166
*1385 FILLER_19_169
*1386 FILLER_19_173
*1387 FILLER_19_177
*1388 FILLER_19_190
*1389 FILLER_19_207
*1390 FILLER_19_21
*1391 FILLER_19_222
*1392 FILLER_19_225
*1393 FILLER_19_240
*1394 FILLER_19_253
*1395 FILLER_19_260
*1396 FILLER_19_273
*1397 FILLER_19_279
*1398 FILLER_19_281
*1399 FILLER_19_287
*1400 FILLER_19_297
*1401 FILLER_19_3
*1402 FILLER_19_304
*1403 FILLER_19_311
*1404 FILLER_19_318
*1405 FILLER_19_325
*1406 FILLER_19_33
*1407 FILLER_19_332
*1408 FILLER_19_337
*1409 FILLER_19_342
*1410 FILLER_19_348
*1411 FILLER_19_360
*1412 FILLER_19_372