*SPEF "ieee 1481-1999"
*DESIGN "cby_1__1_"
*DATE "11:11:11 Fri 11 11, 1111"
*VENDOR "OpenRCX"
*PROGRAM "Parallel Extraction"
*VERSION "1.0"
*DESIGN_FLOW "NAME_SCOPE LOCAL" "PIN_CAP NONE"
*DIVIDER /
*DELIMITER :
*BUS_DELIMITER []
*T_UNIT 1 NS
*C_UNIT 1 PF
*R_UNIT 1 OHM
*L_UNIT 1 HENRY

*NAME_MAP
*1 ccff_head
*2 ccff_tail
*3 chany_bottom_in[0]
*4 chany_bottom_in[10]
*5 chany_bottom_in[11]
*6 chany_bottom_in[12]
*7 chany_bottom_in[13]
*8 chany_bottom_in[14]
*9 chany_bottom_in[15]
*10 chany_bottom_in[16]
*11 chany_bottom_in[17]
*12 chany_bottom_in[18]
*13 chany_bottom_in[1]
*14 chany_bottom_in[2]
*15 chany_bottom_in[3]
*16 chany_bottom_in[4]
*17 chany_bottom_in[5]
*18 chany_bottom_in[6]
*19 chany_bottom_in[7]
*20 chany_bottom_in[8]
*21 chany_bottom_in[9]
*22 chany_bottom_out[0]
*23 chany_bottom_out[10]
*24 chany_bottom_out[11]
*25 chany_bottom_out[12]
*26 chany_bottom_out[13]
*27 chany_bottom_out[14]
*28 chany_bottom_out[15]
*29 chany_bottom_out[16]
*30 chany_bottom_out[17]
*31 chany_bottom_out[18]
*32 chany_bottom_out[1]
*33 chany_bottom_out[2]
*34 chany_bottom_out[3]
*35 chany_bottom_out[4]
*36 chany_bottom_out[5]
*37 chany_bottom_out[6]
*38 chany_bottom_out[7]
*39 chany_bottom_out[8]
*40 chany_bottom_out[9]
*41 chany_top_in[0]
*42 chany_top_in[10]
*43 chany_top_in[11]
*44 chany_top_in[12]
*45 chany_top_in[13]
*46 chany_top_in[14]
*47 chany_top_in[15]
*48 chany_top_in[16]
*49 chany_top_in[17]
*50 chany_top_in[18]
*51 chany_top_in[1]
*52 chany_top_in[2]
*53 chany_top_in[3]
*54 chany_top_in[4]
*55 chany_top_in[5]
*56 chany_top_in[6]
*57 chany_top_in[7]
*58 chany_top_in[8]
*59 chany_top_in[9]
*60 chany_top_out[0]
*61 chany_top_out[10]
*62 chany_top_out[11]
*63 chany_top_out[12]
*64 chany_top_out[13]
*65 chany_top_out[14]
*66 chany_top_out[15]
*67 chany_top_out[16]
*68 chany_top_out[17]
*69 chany_top_out[18]
*70 chany_top_out[1]
*71 chany_top_out[2]
*72 chany_top_out[3]
*73 chany_top_out[4]
*74 chany_top_out[5]
*75 chany_top_out[6]
*76 chany_top_out[7]
*77 chany_top_out[8]
*78 chany_top_out[9]
*79 left_grid_right_width_0_height_0_subtile_0__pin_I_1_
*80 left_grid_right_width_0_height_0_subtile_0__pin_I_5_
*81 left_grid_right_width_0_height_0_subtile_0__pin_I_9_
*82 pReset
*83 prog_clk
*84 right_grid_left_width_0_height_0_subtile_0__pin_I_11_
*85 right_grid_left_width_0_height_0_subtile_0__pin_I_3_
*86 right_grid_left_width_0_height_0_subtile_0__pin_I_7_
*89 _000_
*90 _001_
*91 _002_
*92 _003_
*93 _004_
*94 _005_
*95 _006_
*96 _007_
*97 _008_
*98 _009_
*99 _010_
*100 _011_
*101 _012_
*102 _013_
*103 _014_
*104 _015_
*105 _016_
*106 _017_
*107 _018_
*108 _019_
*109 _020_
*110 _021_
*111 _022_
*112 _023_
*113 _024_
*114 _025_
*115 _026_
*116 _027_
*117 _028_
*118 _029_
*119 _030_
*120 _031_
*121 _032_
*122 _033_
*123 _034_
*124 _035_
*125 _036_
*126 _037_
*127 _038_
*128 _039_
*129 _040_
*130 _041_
*131 _042_
*132 _043_
*133 _044_
*134 _045_
*135 _046_
*136 _047_
*137 _048_
*138 _049_
*139 _050_
*140 _051_
*141 _052_
*142 _053_
*143 _054_
*144 _055_
*145 _056_
*146 _057_
*147 _058_
*148 _059_
*149 _060_
*150 _061_
*151 _062_
*152 _063_
*153 _064_
*154 _065_
*155 _066_
*156 _067_
*157 _068_
*158 _069_
*159 _070_
*160 _071_
*161 _072_
*162 _073_
*163 _074_
*164 _075_
*165 _076_
*166 _077_
*167 _078_
*168 _079_
*169 _080_
*170 _081_
*171 _082_
*172 _083_
*173 _084_
*174 _085_
*175 _086_
*176 _087_
*177 _088_
*178 _089_
*179 _090_
*180 _091_
*181 _092_
*182 _093_
*183 _094_
*184 _095_
*185 _096_
*186 _097_
*187 _098_
*188 _099_
*189 _100_
*190 _101_
*191 _102_
*192 _103_
*193 _104_
*194 _105_
*195 _106_
*196 _107_
*197 _108_
*198 mem_left_ipin_0\.DFFR_0_\.Q
*199 mem_left_ipin_0\.DFFR_1_\.Q
*200 mem_left_ipin_0\.DFFR_2_\.Q
*201 mem_left_ipin_0\.DFFR_3_\.Q
*202 mem_left_ipin_0\.DFFR_4_\.Q
*203 mem_left_ipin_0\.DFFR_5_\.Q
*204 mem_left_ipin_1\.DFFR_0_\.Q
*205 mem_left_ipin_1\.DFFR_1_\.Q
*206 mem_left_ipin_1\.DFFR_2_\.Q
*207 mem_left_ipin_1\.DFFR_3_\.Q
*208 mem_left_ipin_1\.DFFR_4_\.Q
*209 mem_left_ipin_1\.DFFR_5_\.Q
*210 mem_left_ipin_2\.DFFR_0_\.Q
*211 mem_left_ipin_2\.DFFR_1_\.Q
*212 mem_left_ipin_2\.DFFR_2_\.Q
*213 mem_left_ipin_2\.DFFR_3_\.Q
*214 mem_left_ipin_2\.DFFR_4_\.Q
*215 mem_left_ipin_2\.DFFR_5_\.Q
*216 mem_right_ipin_0\.DFFR_0_\.Q
*217 mem_right_ipin_0\.DFFR_1_\.Q
*218 mem_right_ipin_0\.DFFR_2_\.Q
*219 mem_right_ipin_0\.DFFR_3_\.Q
*220 mem_right_ipin_0\.DFFR_4_\.Q
*221 mem_right_ipin_0\.DFFR_5_\.Q
*222 mem_right_ipin_1\.DFFR_0_\.Q
*223 mem_right_ipin_1\.DFFR_1_\.Q
*224 mem_right_ipin_1\.DFFR_2_\.Q
*225 mem_right_ipin_1\.DFFR_3_\.Q
*226 mem_right_ipin_1\.DFFR_4_\.Q
*227 mem_right_ipin_1\.DFFR_5_\.Q
*228 mem_right_ipin_2\.DFFR_0_\.Q
*229 mem_right_ipin_2\.DFFR_1_\.Q
*230 mem_right_ipin_2\.DFFR_2_\.Q
*231 mem_right_ipin_2\.DFFR_3_\.Q
*232 mem_right_ipin_2\.DFFR_4_\.Q
*233 mux_left_ipin_0\.INVTX1_0_\.out
*234 mux_left_ipin_0\.INVTX1_1_\.out
*235 mux_left_ipin_0\.INVTX1_2_\.out
*236 mux_left_ipin_0\.INVTX1_3_\.out
*237 mux_left_ipin_0\.INVTX1_4_\.out
*238 mux_left_ipin_0\.INVTX1_5_\.out
*239 mux_left_ipin_0\.INVTX1_6_\.out
*240 mux_left_ipin_0\.INVTX1_7_\.out
*241 mux_left_ipin_0\.mux_2level_tapbuf_basis_input3_mem3_0_out
*242 mux_left_ipin_0\.mux_2level_tapbuf_basis_input3_mem3_1_out
*243 mux_left_ipin_0\.mux_2level_tapbuf_basis_input3_mem3_2_out
*244 mux_left_ipin_0\.mux_2level_tapbuf_basis_input3_mem3_3_out
*245 mux_left_ipin_1\.INVTX1_2_\.out
*246 mux_left_ipin_1\.INVTX1_3_\.out
*247 mux_left_ipin_1\.INVTX1_4_\.out
*248 mux_left_ipin_1\.INVTX1_5_\.out
*249 mux_left_ipin_1\.INVTX1_6_\.out
*250 mux_left_ipin_1\.INVTX1_7_\.out
*251 mux_left_ipin_1\.mux_2level_tapbuf_basis_input3_mem3_0_out
*252 mux_left_ipin_1\.mux_2level_tapbuf_basis_input3_mem3_1_out
*253 mux_left_ipin_1\.mux_2level_tapbuf_basis_input3_mem3_2_out
*254 mux_left_ipin_1\.mux_2level_tapbuf_basis_input3_mem3_3_out
*255 mux_left_ipin_2\.INVTX1_2_\.out
*256 mux_left_ipin_2\.INVTX1_3_\.out
*257 mux_left_ipin_2\.INVTX1_4_\.out
*258 mux_left_ipin_2\.INVTX1_5_\.out
*259 mux_left_ipin_2\.mux_2level_tapbuf_basis_input3_mem3_0_out
*260 mux_left_ipin_2\.mux_2level_tapbuf_basis_input3_mem3_1_out
*261 mux_left_ipin_2\.mux_2level_tapbuf_basis_input3_mem3_2_out
*262 mux_right_ipin_0\.INVTX1_2_\.out
*263 mux_right_ipin_0\.INVTX1_3_\.out
*264 mux_right_ipin_0\.INVTX1_4_\.out
*265 mux_right_ipin_0\.INVTX1_5_\.out
*266 mux_right_ipin_0\.INVTX1_6_\.out
*267 mux_right_ipin_0\.INVTX1_7_\.out
*268 mux_right_ipin_0\.mux_2level_tapbuf_basis_input3_mem3_0_out
*269 mux_right_ipin_0\.mux_2level_tapbuf_basis_input3_mem3_1_out
*270 mux_right_ipin_0\.mux_2level_tapbuf_basis_input3_mem3_2_out
*271 mux_right_ipin_0\.mux_2level_tapbuf_basis_input3_mem3_3_out
*272 mux_right_ipin_1\.INVTX1_2_\.out
*273 mux_right_ipin_1\.INVTX1_3_\.out
*274 mux_right_ipin_1\.INVTX1_4_\.out
*275 mux_right_ipin_1\.INVTX1_5_\.out
*276 mux_right_ipin_1\.INVTX1_6_\.out
*277 mux_right_ipin_1\.INVTX1_7_\.out
*278 mux_right_ipin_1\.mux_2level_tapbuf_basis_input3_mem3_0_out
*279 mux_right_ipin_1\.mux_2level_tapbuf_basis_input3_mem3_1_out
*280 mux_right_ipin_1\.mux_2level_tapbuf_basis_input3_mem3_2_out
*281 mux_right_ipin_1\.mux_2level_tapbuf_basis_input3_mem3_3_out
*282 mux_right_ipin_2\.INVTX1_2_\.out
*283 mux_right_ipin_2\.INVTX1_3_\.out
*284 mux_right_ipin_2\.INVTX1_6_\.out
*285 mux_right_ipin_2\.INVTX1_7_\.out
*286 mux_right_ipin_2\.mux_2level_tapbuf_basis_input3_mem3_0_out
*287 mux_right_ipin_2\.mux_2level_tapbuf_basis_input3_mem3_1_out
*288 mux_right_ipin_2\.mux_2level_tapbuf_basis_input3_mem3_2_out
*289 mux_right_ipin_2\.mux_2level_tapbuf_basis_input3_mem3_3_out
*290 net1
*291 net10
*292 net11
*293 net12
*294 net13
*295 net14
*296 net15
*297 net16
*298 net17
*299 net18
*300 net19
*301 net2
*302 net20
*303 net21
*304 net22
*305 net23
*306 net24
*307 net25
*308 net26
*309 net27
*310 net28
*311 net29
*312 net3
*313 net30
*314 net31
*315 net32
*316 net33
*317 net34
*318 net35
*319 net36
*320 net37
*321 net38
*322 net39
*323 net4
*324 net40
*325 net41
*326 net42
*327 net43
*328 net44
*329 net45
*330 net46
*331 net47
*332 net48
*333 net49
*334 net5
*335 net50
*336 net51
*337 net52
*338 net53
*339 net54
*340 net55
*341 net56
*342 net57
*343 net58
*344 net59
*345 net6
*346 net60
*347 net61
*348 net62
*349 net63
*350 net64
*351 net65
*352 net66
*353 net67
*354 net68
*355 net69
*356 net7
*357 net70
*358 net71
*359 net72
*360 net73
*361 net74
*362 net75
*363 net76
*364 net77
*365 net78
*366 net79
*367 net8
*368 net80
*369 net81
*370 net82
*371 net83
*372 net84
*373 net85
*374 net86
*375 net87
*376 net88
*377 net89
*378 net9
*379 net90
*380 net91
*381 ANTENNA__124__A
*382 ANTENNA__125__A
*383 ANTENNA__126__A
*384 ANTENNA__127__A
*385 ANTENNA__128__A
*386 ANTENNA__129__A
*387 ANTENNA__130__A
*388 ANTENNA__131__A
*389 ANTENNA__132__A
*390 ANTENNA__133__A
*391 ANTENNA__134__A
*392 ANTENNA__135__A
*393 ANTENNA__137__A
*394 ANTENNA__138__A
*395 ANTENNA__139__A
*396 ANTENNA__140__A
*397 ANTENNA__141__A
*398 ANTENNA__142__A
*399 ANTENNA__143__A
*400 ANTENNA__144__A
*401 ANTENNA__145__A
*402 ANTENNA__146__A
*403 ANTENNA__147__A
*404 ANTENNA__173__A
*405 ANTENNA__175__A
*406 ANTENNA__177__A
*407 ANTENNA__184__A
*408 ANTENNA__185__A
*409 ANTENNA__186__A
*410 ANTENNA__187__A
*411 ANTENNA__188__A
*412 ANTENNA__190__A
*413 ANTENNA__194__A
*414 ANTENNA__195__A
*415 ANTENNA__196__A
*416 ANTENNA__197__A
*417 ANTENNA__198__A
*418 ANTENNA__199__A
*419 ANTENNA__200__A
*420 ANTENNA__202__A
*421 ANTENNA__203__A
*422 ANTENNA__204__A
*423 ANTENNA__205__A
*424 ANTENNA__206__A
*425 ANTENNA__207__A
*426 ANTENNA__210__A
*427 ANTENNA__211__A
*428 ANTENNA__212__A
*429 ANTENNA__213__A
*430 ANTENNA__214__A
*431 ANTENNA__215__A
*432 ANTENNA__216__A
*433 ANTENNA__217__A
*434 ANTENNA__218__A
*435 ANTENNA__219__A
*436 ANTENNA__220__A
*437 ANTENNA__221__A
*438 ANTENNA__223__A
*439 ANTENNA__225__A
*440 ANTENNA__236__A
*441 ANTENNA__247__A
*442 ANTENNA__258__A
*443 ANTENNA__259__A
*444 ANTENNA__260__A
*445 ANTENNA__261__A
*446 ANTENNA__262__A
*447 ANTENNA__263__A
*448 ANTENNA__264__CLK
*449 ANTENNA__265__CLK
*450 ANTENNA__266__CLK
*451 ANTENNA__267__CLK
*452 ANTENNA__268__CLK
*453 ANTENNA__268__D
*454 ANTENNA__269__CLK
*455 ANTENNA__269__D
*456 ANTENNA__270__CLK
*457 ANTENNA__271__CLK
*458 ANTENNA__272__CLK
*459 ANTENNA__273__CLK
*460 ANTENNA__274__CLK
*461 ANTENNA__275__CLK
*462 ANTENNA__276__CLK
*463 ANTENNA__277__CLK
*464 ANTENNA__278__CLK
*465 ANTENNA__279__CLK
*466 ANTENNA__280__CLK
*467 ANTENNA__281__CLK
*468 ANTENNA__282__CLK
*469 ANTENNA__282__D
*470 ANTENNA__283__CLK
*471 ANTENNA__284__CLK
*472 ANTENNA__284__D
*473 ANTENNA__285__CLK
*474 ANTENNA__285__D
*475 ANTENNA__286__CLK
*476 ANTENNA__286__D
*477 ANTENNA__287__CLK
*478 ANTENNA__288__CLK
*479 ANTENNA__288__D
*480 ANTENNA__289__CLK
*481 ANTENNA__289__D
*482 ANTENNA__290__CLK
*483 ANTENNA__290__D
*484 ANTENNA__291__CLK
*485 ANTENNA__291__D
*486 ANTENNA__292__CLK
*487 ANTENNA__292__D
*488 ANTENNA__293__CLK
*489 ANTENNA__293__D
*490 ANTENNA__294__CLK
*491 ANTENNA__295__CLK
*492 ANTENNA__296__CLK
*493 ANTENNA__297__CLK
*494 ANTENNA__298__CLK
*495 ANTENNA__299__CLK
*496 ANTENNA__306__A
*497 ANTENNA__307__A
*498 ANTENNA__308__A
*499 ANTENNA__309__A
*500 ANTENNA__310__A
*501 ANTENNA__311__A
*502 ANTENNA__312__A
*503 ANTENNA__313__A
*504 ANTENNA__315__A
*505 ANTENNA__316__A
*506 ANTENNA__317__A
*507 ANTENNA__319__A
*508 ANTENNA__320__A
*509 ANTENNA__321__A
*510 ANTENNA__322__A
*511 ANTENNA__323__A
*512 ANTENNA__325__A
*513 ANTENNA__326__A
*514 ANTENNA__329__A
*515 ANTENNA__330__A
*516 ANTENNA__332__A
*517 ANTENNA__333__A
*518 ANTENNA__334__A
*519 ANTENNA__336__A
*520 ANTENNA__337__A
*521 ANTENNA__338__A
*522 ANTENNA__339__A
*523 ANTENNA__340__A
*524 ANTENNA__342__A
*525 ANTENNA__343__A
*526 ANTENNA_input10_A
*527 ANTENNA_input11_A
*528 ANTENNA_input12_A
*529 ANTENNA_input13_A
*530 ANTENNA_input14_A
*531 ANTENNA_input15_A
*532 ANTENNA_input16_A
*533 ANTENNA_input17_A
*534 ANTENNA_input18_A
*535 ANTENNA_input19_A
*536 ANTENNA_input1_A
*537 ANTENNA_input20_A
*538 ANTENNA_input21_A
*539 ANTENNA_input22_A
*540 ANTENNA_input23_A
*541 ANTENNA_input24_A
*542 ANTENNA_input25_A
*543 ANTENNA_input26_A
*544 ANTENNA_input27_A
*545 ANTENNA_input28_A
*546 ANTENNA_input29_A
*547 ANTENNA_input2_A
*548 ANTENNA_input30_A
*549 ANTENNA_input31_A
*550 ANTENNA_input32_A
*551 ANTENNA_input33_A
*552 ANTENNA_input34_A
*553 ANTENNA_input35_A
*554 ANTENNA_input36_A
*555 ANTENNA_input37_A
*556 ANTENNA_input38_A
*557 ANTENNA_input39_A
*558 ANTENNA_input3_A
*559 ANTENNA_input40_A
*560 ANTENNA_input4_A
*561 ANTENNA_input5_A
*562 ANTENNA_input6_A
*563 ANTENNA_input7_A
*564 ANTENNA_input8_A
*565 ANTENNA_input9_A
*566 ANTENNA_output41_A
*567 ANTENNA_output42_A
*568 ANTENNA_output47_A
*569 ANTENNA_output54_A
*570 ANTENNA_output57_A
*571 ANTENNA_output59_A
*572 ANTENNA_output64_A
*573 ANTENNA_output66_A
*574 ANTENNA_output67_A
*575 ANTENNA_output75_A
*576 FILLER_0_110
*577 FILLER_0_113
*578 FILLER_0_117
*579 FILLER_0_121
*580 FILLER_0_126
*581 FILLER_0_134
*582 FILLER_0_138
*583 FILLER_0_141
*584 FILLER_0_147
*585 FILLER_0_15
*586 FILLER_0_159
*587 FILLER_0_167
*588 FILLER_0_169
*589 FILLER_0_175
*590 FILLER_0_183
*591 FILLER_0_194
*592 FILLER_0_197
*593 FILLER_0_203
*594 FILLER_0_209
*595 FILLER_0_217
*596 FILLER_0_222
*597 FILLER_0_225
*598 FILLER_0_23
*599 FILLER_0_250
*600 FILLER_0_253
*601 FILLER_0_27
*602 FILLER_0_276
*603 FILLER_0_281
*604 FILLER_0_29
*605 FILLER_0_3
*606 FILLER_0_304
*607 FILLER_0_309
*608 FILLER_0_331
*609 FILLER_0_335
*610 FILLER_0_337
*611 FILLER_0_343
*612 FILLER_0_347
*613 FILLER_0_35
*614 FILLER_0_354
*615 FILLER_0_361
*616 FILLER_0_365
*617 FILLER_0_371
*618 FILLER_0_377
*619 FILLER_0_385
*620 FILLER_0_391
*621 FILLER_0_393
*622 FILLER_0_405
*623 FILLER_0_43
*624 FILLER_0_49
*625 FILLER_0_55
*626 FILLER_0_57
*627 FILLER_0_65
*628 FILLER_0_70
*629 FILLER_0_76
*630 FILLER_0_82
*631 FILLER_0_85
*632 FILLER_0_91
*633 FILLER_0_99
*634 FILLER_10_109
*635 FILLER_10_121
*636 FILLER_10_133
*637 FILLER_10_139
*638 FILLER_10_141
*639 FILLER_10_153
*640 FILLER_10_165
*641 FILLER_10_177
*642 FILLER_10_189
*643 FILLER_10_195
*644 FILLER_10_197
*645 FILLER_10_209
*646 FILLER_10_21
*647 FILLER_10_226
*648 FILLER_10_250
*649 FILLER_10_253
*650 FILLER_10_258
*651 FILLER_10_27
*652 FILLER_10_285
*653 FILLER_10_29
*654 FILLER_10_291
*655 FILLER_10_297
*656 FILLER_10_3
*657 FILLER_10_300
*658 FILLER_10_306
*659 FILLER_10_309
*660 FILLER_10_331
*661 FILLER_10_338
*662 FILLER_10_345
*663 FILLER_10_357
*664 FILLER_10_363
*665 FILLER_10_365
*666 FILLER_10_377
*667 FILLER_10_389
*668 FILLER_10_405
*669 FILLER_10_41
*670 FILLER_10_53
*671 FILLER_10_65
*672 FILLER_10_77
*673 FILLER_10_83
*674 FILLER_10_85
*675 FILLER_10_9
*676 FILLER_10_97
*677 FILLER_11_105
*678 FILLER_11_111
*679 FILLER_11_113
*680 FILLER_11_125
*681 FILLER_11_137
*682 FILLER_11_149
*683 FILLER_11_15
*684 FILLER_11_161
*685 FILLER_11_167
*686 FILLER_11_169
*687 FILLER_11_181
*688 FILLER_11_193
*689 FILLER_11_205
*690 FILLER_11_219
*691 FILLER_11_223
*692 FILLER_11_225
*693 FILLER_11_232
*694 FILLER_11_238
*695 FILLER_11_259
*696 FILLER_11_266
*697 FILLER_11_27
*698 FILLER_11_273
*699 FILLER_11_279
*700 FILLER_11_281
*701 FILLER_11_285
*702 FILLER_11_3
*703 FILLER_11_307
*704 FILLER_11_331
*705 FILLER_11_335
*706 FILLER_11_337
*707 FILLER_11_349
*708 FILLER_11_361
*709 FILLER_11_373
*710 FILLER_11_385
*711 FILLER_11_39
*712 FILLER_11_391
*713 FILLER_11_393
*714 FILLER_11_405
*715 FILLER_11_51
*716 FILLER_11_55
*717 FILLER_11_57
*718 FILLER_11_69
*719 FILLER_11_81
*720 FILLER_11_93
*721 FILLER_12_109
*722 FILLER_12_121
*723 FILLER_12_133
*724 FILLER_12_139
*725 FILLER_12_141
*726 FILLER_12_15
*727 FILLER_12_153
*728 FILLER_12_165
*729 FILLER_12_177
*730 FILLER_12_189
*731 FILLER_12_195
*732 FILLER_12_197
*733 FILLER_12_209
*734 FILLER_12_213
*735 FILLER_12_217
*736 FILLER_12_230
*737 FILLER_12_245
*738 FILLER_12_251
*739 FILLER_12_253
*740 FILLER_12_262
*741 FILLER_12_269
*742 FILLER_12_27
*743 FILLER_12_276
*744 FILLER_12_286
*745 FILLER_12_29
*746 FILLER_12_298
*747 FILLER_12_3
*748 FILLER_12_306
*749 FILLER_12_309
*750 FILLER_12_313
*751 FILLER_12_321
*752 FILLER_12_324
*753 FILLER_12_336
*754 FILLER_12_348
*755 FILLER_12_360
*756 FILLER_12_365
*757 FILLER_12_377
*758 FILLER_12_389
*759 FILLER_12_397
*760 FILLER_12_405
*761 FILLER_12_41
*762 FILLER_12_53
*763 FILLER_12_65
*764 FILLER_12_77
*765 FILLER_12_83
*766 FILLER_12_85
*767 FILLER_12_97
*768 FILLER_13_105
*769 FILLER_13_111
*770 FILLER_13_113
*771 FILLER_13_125
*772 FILLER_13_137
*773 FILLER_13_149
*774 FILLER_13_161
*775 FILLER_13_167
*776 FILLER_13_169
*777 FILLER_13_181
*778 FILLER_13_19
*779 FILLER_13_193
*780 FILLER_13_205
*781 FILLER_13_217
*782 FILLER_13_223
*783 FILLER_13_225
*784 FILLER_13_232
*785 FILLER_13_244
*786 FILLER_13_259
*787 FILLER_13_276
*788 FILLER_13_281
*789 FILLER_13_293
*790 FILLER_13_3
*791 FILLER_13_305
*792 FILLER_13_31
*793 FILLER_13_317
*794 FILLER_13_329
*795 FILLER_13_335
*796 FILLER_13_337
*797 FILLER_13_349
*798 FILLER_13_361
*799 FILLER_13_373
*800 FILLER_13_385
*801 FILLER_13_391
*802 FILLER_13_393
*803 FILLER_13_405
*804 FILLER_13_43
*805 FILLER_13_55
*806 FILLER_13_57
*807 FILLER_13_69
*808 FILLER_13_7
*809 FILLER_13_81
*810 FILLER_13_93
*811 FILLER_14_109
*812 FILLER_14_121
*813 FILLER_14_133
*814 FILLER_14_139
*815 FILLER_14_141
*816 FILLER_14_146
*817 FILLER_14_15
*818 FILLER_14_158
*819 FILLER_14_170
*820 FILLER_14_177
*821 FILLER_14_183
*822 FILLER_14_195
*823 FILLER_14_197
*824 FILLER_14_209
*825 FILLER_14_221
*826 FILLER_14_238
*827 FILLER_14_244
*828 FILLER_14_253
*829 FILLER_14_258
*830 FILLER_14_27
*831 FILLER_14_279
*832 FILLER_14_286
*833 FILLER_14_29
*834 FILLER_14_298
*835 FILLER_14_3
*836 FILLER_14_306
*837 FILLER_14_309
*838 FILLER_14_321
*839 FILLER_14_333
*840 FILLER_14_345
*841 FILLER_14_351
*842 FILLER_14_355
*843 FILLER_14_363
*844 FILLER_14_365
*845 FILLER_14_377
*846 FILLER_14_389
*847 FILLER_14_401
*848 FILLER_14_41
*849 FILLER_14_53
*850 FILLER_14_65
*851 FILLER_14_77
*852 FILLER_14_83
*853 FILLER_14_85
*854 FILLER_14_97
*855 FILLER_15_105
*856 FILLER_15_11
*857 FILLER_15_111
*858 FILLER_15_113
*859 FILLER_15_125
*860 FILLER_15_137
*861 FILLER_15_149
*862 FILLER_15_166
*863 FILLER_15_169
*864 FILLER_15_181
*865 FILLER_15_193
*866 FILLER_15_205
*867 FILLER_15_217
*868 FILLER_15_222
*869 FILLER_15_225
*870 FILLER_15_23
*871 FILLER_15_236
*872 FILLER_15_243
*873 FILLER_15_249
*874 FILLER_15_253
*875 FILLER_15_261
*876 FILLER_15_275
*877 FILLER_15_279
*878 FILLER_15_281
*879 FILLER_15_293
*880 FILLER_15_3
*881 FILLER_15_301
*882 FILLER_15_307
*883 FILLER_15_319
*884 FILLER_15_330
*885 FILLER_15_337
*886 FILLER_15_349
*887 FILLER_15_35
*888 FILLER_15_361
*889 FILLER_15_373
*890 FILLER_15_379
*891 FILLER_15_384
*892 FILLER_15_393
*893 FILLER_15_401
*894 FILLER_15_405
*895 FILLER_15_47
*896 FILLER_15_55
*897 FILLER_15_57
*898 FILLER_15_69
*899 FILLER_15_81
*900 FILLER_15_93
*901 FILLER_16_109
*902 FILLER_16_121
*903 FILLER_16_133
*904 FILLER_16_139
*905 FILLER_16_141
*906 FILLER_16_153
*907 FILLER_16_162
*908 FILLER_16_168
*909 FILLER_16_180
*910 FILLER_16_192
*911 FILLER_16_197
*912 FILLER_16_209
*913 FILLER_16_21
*914 FILLER_16_215
*915 FILLER_16_218
*916 FILLER_16_226
*917 FILLER_16_233
*918 FILLER_16_240
*919 FILLER_16_247
*920 FILLER_16_251
*921 FILLER_16_253
*922 FILLER_16_268
*923 FILLER_16_27
*924 FILLER_16_281
*925 FILLER_16_287
*926 FILLER_16_29
*927 FILLER_16_293
*928 FILLER_16_3
*929 FILLER_16_305
*930 FILLER_16_309
*931 FILLER_16_321
*932 FILLER_16_333
*933 FILLER_16_345
*934 FILLER_16_357
*935 FILLER_16_363
*936 FILLER_16_365
*937 FILLER_16_377
*938 FILLER_16_389
*939 FILLER_16_405
*940 FILLER_16_41
*941 FILLER_16_53
*942 FILLER_16_65
*943 FILLER_16_77
*944 FILLER_16_83
*945 FILLER_16_85
*946 FILLER_16_9
*947 FILLER_16_97
*948 FILLER_17_105
*949 FILLER_17_111
*950 FILLER_17_113
*951 FILLER_17_125
*952 FILLER_17_137
*953 FILLER_17_149
*954 FILLER_17_15
*955 FILLER_17_161
*956 FILLER_17_167
*957 FILLER_17_169
*958 FILLER_17_181
*959 FILLER_17_193
*960 FILLER_17_205
*961 FILLER_17_215
*962 FILLER_17_222
*963 FILLER_17_225
*964 FILLER_17_237
*965 FILLER_17_244
*966 FILLER_17_252
*967 FILLER_17_266
*968 FILLER_17_27
*969 FILLER_17_273
*970 FILLER_17_279
*971 FILLER_17_281
*972 FILLER_17_286
*973 FILLER_17_293
*974 FILLER_17_3
*975 FILLER_17_305
*976 FILLER_17_317
*977 FILLER_17_329
*978 FILLER_17_335
*979 FILLER_17_337
*980 FILLER_17_349
*981 FILLER_17_361
*982 FILLER_17_373
*983 FILLER_17_385
*984 FILLER_17_39
*985 FILLER_17_391
*986 FILLER_17_393
*987 FILLER_17_405
*988 FILLER_17_51
*989 FILLER_17_55
*990 FILLER_17_57
*991 FILLER_17_69
*992 FILLER_17_81
*993 FILLER_17_93
*994 FILLER_18_109
*995 FILLER_18_121
*996 FILLER_18_133
*997 FILLER_18_139
*998 FILLER_18_141
*999 FILLER_18_15
*1000 FILLER_18_153
*1001 FILLER_18_165
*1002 FILLER_18_173
*1003 FILLER_18_177
*1004 FILLER_18_183
*1005 FILLER_18_195
*1006 FILLER_18_197
*1007 FILLER_18_205
*1008 FILLER_18_208
*1009 FILLER_18_215
*1010 FILLER_18_222
*1011 FILLER_18_235
*1012 FILLER_18_248
*1013 FILLER_18_253
*1014 FILLER_18_27
*1015 FILLER_18_272
*1016 FILLER_18_285
*1017 FILLER_18_29
*1018 FILLER_18_292
*1019 FILLER_18_299
*1020 FILLER_18_3
*1021 FILLER_18_307
*1022 FILLER_18_309
*1023 FILLER_18_321
*1024 FILLER_18_33
*1025 FILLER_18_333
*1026 FILLER_18_345
*1027 FILLER_18_357
*1028 FILLER_18_363
*1029 FILLER_18_365
*1030 FILLER_18_37
*1031 FILLER_18_377
*1032 FILLER_18_389
*1033 FILLER_18_401
*1034 FILLER_18_43
*1035 FILLER_18_55
*1036 FILLER_18_67
*1037 FILLER_18_79
*1038 FILLER_18_83
*1039 FILLER_18_85
*1040 FILLER_18_97
*1041 FILLER_19_105
*1042 FILLER_19_111
*1043 FILLER_19_113
*1044 FILLER_19_125
*1045 FILLER_19_137
*1046 FILLER_19_149
*1047 FILLER_19_15
*1048 FILLER_19_161
*1049 FILLER_19_167
*1050 FILLER_19_169
*1051 FILLER_19_181
*1052 FILLER_19_193
*1053 FILLER_19_205
*1054 FILLER_19_208
*1055 FILLER_19_221
*1056 FILLER_19_225
*1057 FILLER_19_231
*1058 FILLER_19_236
*1059 FILLER_19_249
*1060 FILLER_19_262
*1061 FILLER_19_269
*1062 FILLER_19_27
*1063 FILLER_19_276
*1064 FILLER_19_281
*1065 FILLER_19_286
*1066 FILLER_19_293
*1067 FILLER_19_3
*1068 FILLER_19_300
*1069 FILLER_19_306
*1070 FILLER_19_318
*1071 FILLER_19_330
*1072 FILLER_19_337
*1073 FILLER_19_349
*1074 FILLER_19_361
*1075 FILLER_19_373
*1076 FILLER_19_385
*1077 FILLER_19_39
*1078 FILLER_19_391
*1079 FILLER_19_393
*1080 FILLER_19_405
*1081 FILLER_19_51
*1082 FILLER_19_55
*1083 FILLER_19_57
*1084 FILLER_19_69
*1085 FILLER_19_81
*1086 FILLER_19_93
*1087 FILLER_1_105
*1088 FILLER_1_111
*1089 FILLER_1_113
*1090 FILLER_1_125
*1091 FILLER_1_137
*1092 FILLER_1_149
*1093 FILLER_1_15
*1094 FILLER_1_161
*1095 FILLER_1_167
*1096 FILLER_1_169
*1097 FILLER_1_175
*1098 FILLER_1_179
*1099 FILLER_1_185
*1100 FILLER_1_197
*1101 FILLER_1_201
*1102 FILLER_1_208
*1103 FILLER_1_215
*1104 FILLER_1_222
*1105 FILLER_1_225
*1106 FILLER_1_229
*1107 FILLER_1_237
*1108 FILLER_1_25
*1109 FILLER_1_264
*1110 FILLER_1_272
*1111 FILLER_1_278
*1112 FILLER_1_281
*1113 FILLER_1_285
*1114 FILLER_1_291
*1115 FILLER_1_296
*1116 FILLER_1_3
*1117 FILLER_1_31
*1118 FILLER_1_323
*1119 FILLER_1_331
*1120 FILLER_1_335
*1121 FILLER_1_337
*1122 FILLER_1_359
*1123 FILLER_1_366
*1124 FILLER_1_373
*1125 FILLER_1_379
*1126 FILLER_1_385
*1127 FILLER_1_391
*1128 FILLER_1_393
*1129 FILLER_1_405
*1130 FILLER_1_43
*1131 FILLER_1_51
*1132 FILLER_1_55
*1133 FILLER_1_57
*1134 FILLER_1_69
*1135 FILLER_1_81
*1136 FILLER_1_93
*1137 FILLER_20_101
*1138 FILLER_20_105
*1139 FILLER_20_111
*1140 FILLER_20_123
*1141 FILLER_20_135
*1142 FILLER_20_139
*1143 FILLER_20_141
*1144 FILLER_20_153
*1145 FILLER_20_165
*1146 FILLER_20_177
*1147 FILLER_20_189
*1148 FILLER_20_195
*1149 FILLER_20_197
*1150 FILLER_20_209
*1151 FILLER_20_21
*1152 FILLER_20_219
*1153 FILLER_20_226
*1154 FILLER_20_239
*1155 FILLER_20_250
*1156 FILLER_20_253
*1157 FILLER_20_264
*1158 FILLER_20_27
*1159 FILLER_20_276
*1160 FILLER_20_283
*1161 FILLER_20_29
*1162 FILLER_20_295
*1163 FILLER_20_3
*1164 FILLER_20_307
*1165 FILLER_20_309
*1166 FILLER_20_321
*1167 FILLER_20_333
*1168 FILLER_20_345
*1169 FILLER_20_357
*1170 FILLER_20_363
*1171 FILLER_20_365
*1172 FILLER_20_377
*1173 FILLER_20_389
*1174 FILLER_20_405
*1175 FILLER_20_41
*1176 FILLER_20_53
*1177 FILLER_20_65
*1178 FILLER_20_77
*1179 FILLER_20_83
*1180 FILLER_20_85
*1181 FILLER_20_9
*1182 FILLER_20_97
*1183 FILLER_21_105
*1184 FILLER_21_111
*1185 FILLER_21_113
*1186 FILLER_21_125
*1187 FILLER_21_137
*1188 FILLER_21_149
*1189 FILLER_21_15
*1190 FILLER_21_161
*1191 FILLER_21_167
*1192 FILLER_21_169
*1193 FILLER_21_181
*1194 FILLER_21_193
*1195 FILLER_21_199
*1196 FILLER_21_205
*1197 FILLER_21_217
*1198 FILLER_21_222
*1199 FILLER_21_225
*1200 FILLER_21_231
*1201 FILLER_21_239
*1202 FILLER_21_243
*1203 FILLER_21_250
*1204 FILLER_21_263
*1205 FILLER_21_267
*1206 FILLER_21_27
*1207 FILLER_21_277
*1208 FILLER_21_281
*1209 FILLER_21_286
*1210 FILLER_21_298
*1211 FILLER_21_3
*1212 FILLER_21_310
*1213 FILLER_21_322
*1214 FILLER_21_334
*1215 FILLER_21_337
*1216 FILLER_21_349
*1217 FILLER_21_361
*1218 FILLER_21_373
*1219 FILLER_21_385
*1220 FILLER_21_39
*1221 FILLER_21_391
*1222 FILLER_21_393
*1223 FILLER_21_402
*1224 FILLER_21_406
*1225 FILLER_21_51
*1226 FILLER_21_55
*1227 FILLER_21_57
*1228 FILLER_21_69
*1229 FILLER_21_81
*1230 FILLER_21_93
*1231 FILLER_22_109
*1232 FILLER_22_11
*1233 FILLER_22_117
*1234 FILLER_22_122
*1235 FILLER_22_128
*1236 FILLER_22_141
*1237 FILLER_22_153
*1238 FILLER_22_165
*1239 FILLER_22_17
*1240 FILLER_22_177
*1241 FILLER_22_189
*1242 FILLER_22_195
*1243 FILLER_22_197
*1244 FILLER_22_209
*1245 FILLER_22_221
*1246 FILLER_22_236
*1247 FILLER_22_25
*1248 FILLER_22_250
*1249 FILLER_22_253
*1250 FILLER_22_265
*1251 FILLER_22_271
*1252 FILLER_22_281
*1253 FILLER_22_29
*1254 FILLER_22_294
*1255 FILLER_22_3
*1256 FILLER_22_306
*1257 FILLER_22_309
*1258 FILLER_22_321
*1259 FILLER_22_333
*1260 FILLER_22_345
*1261 FILLER_22_357
*1262 FILLER_22_363
*1263 FILLER_22_365
*1264 FILLER_22_373
*1265 FILLER_22_377
*1266 FILLER_22_389
*1267 FILLER_22_401
*1268 FILLER_22_404
*1269 FILLER_22_41
*1270 FILLER_22_53
*1271 FILLER_22_65
*1272 FILLER_22_77
*1273 FILLER_22_83
*1274 FILLER_22_85
*1275 FILLER_22_97
*1276 FILLER_23_105
*1277 FILLER_23_111
*1278 FILLER_23_113
*1279 FILLER_23_119
*1280 FILLER_23_123
*1281 FILLER_23_129
*1282 FILLER_23_141
*1283 FILLER_23_15
*1284 FILLER_23_153
*1285 FILLER_23_165
*1286 FILLER_23_169
*1287 FILLER_23_181
*1288 FILLER_23_193
*1289 FILLER_23_205
*1290 FILLER_23_217
*1291 FILLER_23_222
*1292 FILLER_23_225
*1293 FILLER_23_230
*1294 FILLER_23_237
*1295 FILLER_23_250
*1296 FILLER_23_263
*1297 FILLER_23_27
*1298 FILLER_23_270
*1299 FILLER_23_277
*1300 FILLER_23_281
*1301 FILLER_23_291
*1302 FILLER_23_298
*1303 FILLER_23_3
*1304 FILLER_23_310
*1305 FILLER_23_322
*1306 FILLER_23_334
*1307 FILLER_23_337
*1308 FILLER_23_349
*1309 FILLER_23_361
*1310 FILLER_23_373
*1311 FILLER_23_385
*1312 FILLER_23_39
*1313 FILLER_23_391
*1314 FILLER_23_393
*1315 FILLER_23_405
*1316 FILLER_23_51
*1317 FILLER_23_55
*1318 FILLER_23_57
*1319 FILLER_23_69
*1320 FILLER_23_81
*1321 FILLER_23_93
*1322 FILLER_24_109
*1323 FILLER_24_121
*1324 FILLER_24_133
*1325 FILLER_24_139
*1326 FILLER_24_141
*1327 FILLER_24_153
*1328 FILLER_24_165
*1329 FILLER_24_177
*1330 FILLER_24_189
*1331 FILLER_24_195
*1332 FILLER_24_197
*1333 FILLER_24_209
*1334 FILLER_24_21
*1335 FILLER_24_223
*1336 FILLER_24_231
*1337 FILLER_24_244
*1338 FILLER_24_250
*1339 FILLER_24_253
*1340 FILLER_24_263
*1341 FILLER_24_27
*1342 FILLER_24_275
*1343 FILLER_24_282
*1344 FILLER_24_289
*1345 FILLER_24_29
*1346 FILLER_24_296
*1347 FILLER_24_3
*1348 FILLER_24_302
*1349 FILLER_24_309
*1350 FILLER_24_321
*1351 FILLER_24_333
*1352 FILLER_24_345
*1353 FILLER_24_357
*1354 FILLER_24_363
*1355 FILLER_24_365
*1356 FILLER_24_377
*1357 FILLER_24_389
*1358 FILLER_24_405
*1359 FILLER_24_41
*1360 FILLER_24_53
*1361 FILLER_24_61
*1362 FILLER_24_66
*1363 FILLER_24_72
*1364 FILLER_24_85
*1365 FILLER_24_9
*1366 FILLER_24_97
*1367 FILLER_25_105
*1368 FILLER_25_111
*1369 FILLER_25_113
*1370 FILLER_25_125
*1371 FILLER_25_137
*1372 FILLER_25_149
*1373 FILLER_25_15
*1374 FILLER_25_161
*1375 FILLER_25_167
*1376 FILLER_25_169
*1377 FILLER_25_181
*1378 FILLER_25_193
*1379 FILLER_25_205
*1380 FILLER_25_209
*1381 FILLER_25_212
*1382 FILLER_25_218
*1383 FILLER_25_222
*1384 FILLER_25_225
*1385 FILLER_25_229
*1386 FILLER_25_238
*1387 FILLER_25_251
*1388 FILLER_25_263
*1389 FILLER_25_27
*1390 FILLER_25_278
*1391 FILLER_25_281
*1392 FILLER_25_286
*1393 FILLER_25_292
*1394 FILLER_25_3
*1395 FILLER_25_304
*1396 FILLER_25_316
*1397 FILLER_25_328
*1398 FILLER_25_337
*1399 FILLER_25_349
*1400 FILLER_25_361
*1401 FILLER_25_373
*1402 FILLER_25_385
*1403 FILLER_25_39
*1404 FILLER_25_391
*1405 FILLER_25_393
*1406 FILLER_25_405
*1407 FILLER_25_51
*1408 FILLER_25_55
*1409 FILLER_25_57
*1410 FILLER_25_69
*1411 FILLER_25_81
*1412 FILLER_25_93
*1413 FILLER_26_10
*1414 FILLER_26_101
*1415 FILLER_26_107
*1416 FILLER_26_119
*1417 FILLER_26_131
*1418 FILLER_26_139
*1419 FILLER_26_141
*1420 FILLER_26_153
*1421 FILLER_26_16
*1422 FILLER_26_165
*1423 FILLER_26_177
*1424 FILLER_26_189
*1425 FILLER_26_195
*1426 FILLER_26_197
*1427 FILLER_26_205
*1428 FILLER_26_210
*1429 FILLER_26_221
*1430 FILLER_26_228
*1431 FILLER_26_241
*1432 FILLER_26_249
*1433 FILLER_26_253
*1434 FILLER_26_258
*1435 FILLER_26_275
*1436 FILLER_26_282
*1437 FILLER_26_289
*1438 FILLER_26_29
*1439 FILLER_26_295
*1440 FILLER_26_3
*1441 FILLER_26_307
*1442 FILLER_26_309
*1443 FILLER_26_321
*1444 FILLER_26_333
*1445 FILLER_26_345
*1446 FILLER_26_357
*1447 FILLER_26_363
*1448 FILLER_26_365
*1449 FILLER_26_377
*1450 FILLER_26_389
*1451 FILLER_26_401
*1452 FILLER_26_41
*1453 FILLER_26_53
*1454 FILLER_26_65
*1455 FILLER_26_77
*1456 FILLER_26_83
*1457 FILLER_26_85
*1458 FILLER_26_97
*1459 FILLER_27_105
*1460 FILLER_27_111
*1461 FILLER_27_113
*1462 FILLER_27_125
*1463 FILLER_27_137
*1464 FILLER_27_149
*1465 FILLER_27_161
*1466 FILLER_27_167
*1467 FILLER_27_169
*1468 FILLER_27_181
*1469 FILLER_27_193
*1470 FILLER_27_205
*1471 FILLER_27_21
*1472 FILLER_27_213
*1473 FILLER_27_216
*1474 FILLER_27_222
*1475 FILLER_27_225