*SPEF "ieee 1481-1999"
*DESIGN "cby_4__1_"
*DATE "11:11:11 Fri 11 11, 1111"
*VENDOR "OpenRCX"
*PROGRAM "Parallel Extraction"
*VERSION "1.0"
*DESIGN_FLOW "NAME_SCOPE LOCAL" "PIN_CAP NONE"
*DIVIDER /
*DELIMITER :
*BUS_DELIMITER []
*T_UNIT 1 NS
*C_UNIT 1 PF
*R_UNIT 1 OHM
*L_UNIT 1 HENRY

*NAME_MAP
*1 ccff_head
*2 ccff_tail
*3 chany_bottom_in[0]
*4 chany_bottom_in[10]
*5 chany_bottom_in[11]
*6 chany_bottom_in[12]
*7 chany_bottom_in[13]
*8 chany_bottom_in[14]
*9 chany_bottom_in[15]
*10 chany_bottom_in[16]
*11 chany_bottom_in[17]
*12 chany_bottom_in[18]
*13 chany_bottom_in[1]
*14 chany_bottom_in[2]
*15 chany_bottom_in[3]
*16 chany_bottom_in[4]
*17 chany_bottom_in[5]
*18 chany_bottom_in[6]
*19 chany_bottom_in[7]
*20 chany_bottom_in[8]
*21 chany_bottom_in[9]
*22 chany_bottom_out[0]
*23 chany_bottom_out[10]
*24 chany_bottom_out[11]
*25 chany_bottom_out[12]
*26 chany_bottom_out[13]
*27 chany_bottom_out[14]
*28 chany_bottom_out[15]
*29 chany_bottom_out[16]
*30 chany_bottom_out[17]
*31 chany_bottom_out[18]
*32 chany_bottom_out[1]
*33 chany_bottom_out[2]
*34 chany_bottom_out[3]
*35 chany_bottom_out[4]
*36 chany_bottom_out[5]
*37 chany_bottom_out[6]
*38 chany_bottom_out[7]
*39 chany_bottom_out[8]
*40 chany_bottom_out[9]
*41 chany_top_in[0]
*42 chany_top_in[10]
*43 chany_top_in[11]
*44 chany_top_in[12]
*45 chany_top_in[13]
*46 chany_top_in[14]
*47 chany_top_in[15]
*48 chany_top_in[16]
*49 chany_top_in[17]
*50 chany_top_in[18]
*51 chany_top_in[1]
*52 chany_top_in[2]
*53 chany_top_in[3]
*54 chany_top_in[4]
*55 chany_top_in[5]
*56 chany_top_in[6]
*57 chany_top_in[7]
*58 chany_top_in[8]
*59 chany_top_in[9]
*60 chany_top_out[0]
*61 chany_top_out[10]
*62 chany_top_out[11]
*63 chany_top_out[12]
*64 chany_top_out[13]
*65 chany_top_out[14]
*66 chany_top_out[15]
*67 chany_top_out[16]
*68 chany_top_out[17]
*69 chany_top_out[18]
*70 chany_top_out[1]
*71 chany_top_out[2]
*72 chany_top_out[3]
*73 chany_top_out[4]
*74 chany_top_out[5]
*75 chany_top_out[6]
*76 chany_top_out[7]
*77 chany_top_out[8]
*78 chany_top_out[9]
*79 left_grid_right_width_0_height_0_subtile_0__pin_I_1_
*80 left_grid_right_width_0_height_0_subtile_0__pin_I_5_
*81 left_grid_right_width_0_height_0_subtile_0__pin_I_9_
*82 pReset
*83 prog_clk
*84 right_grid_left_width_0_height_0_subtile_0__pin_outpad_0_
*85 right_grid_left_width_0_height_0_subtile_1__pin_outpad_0_
*86 right_grid_left_width_0_height_0_subtile_2__pin_outpad_0_
*87 right_grid_left_width_0_height_0_subtile_3__pin_outpad_0_
*88 right_grid_left_width_0_height_0_subtile_4__pin_outpad_0_
*89 right_grid_left_width_0_height_0_subtile_5__pin_outpad_0_
*90 right_grid_left_width_0_height_0_subtile_6__pin_outpad_0_
*91 right_grid_left_width_0_height_0_subtile_7__pin_outpad_0_
*94 _000_
*95 _001_
*96 _002_
*97 _003_
*98 _004_
*99 _005_
*100 _006_
*101 _007_
*102 _008_
*103 _009_
*104 _010_
*105 _011_
*106 _012_
*107 _013_
*108 _014_
*109 _015_
*110 _016_
*111 _017_
*112 _018_
*113 _019_
*114 _020_
*115 _021_
*116 _022_
*117 _023_
*118 _024_
*119 _025_
*120 _026_
*121 _027_
*122 _028_
*123 _029_
*124 _030_
*125 _031_
*126 _032_
*127 _033_
*128 _034_
*129 _035_
*130 _036_
*131 _037_
*132 _038_
*133 _039_
*134 _040_
*135 _041_
*136 _042_
*137 _043_
*138 _044_
*139 _045_
*140 _046_
*141 _047_
*142 _048_
*143 _049_
*144 _050_
*145 _051_
*146 _052_
*147 _053_
*148 _054_
*149 _055_
*150 _056_
*151 _057_
*152 _058_
*153 _059_
*154 _060_
*155 _061_
*156 _062_
*157 _063_
*158 _064_
*159 _065_
*160 _066_
*161 _067_
*162 _068_
*163 _069_
*164 _070_
*165 _071_
*166 _072_
*167 _073_
*168 _074_
*169 _075_
*170 _076_
*171 _077_
*172 _078_
*173 _079_
*174 _080_
*175 _081_
*176 _082_
*177 _083_
*178 _084_
*179 _085_
*180 _086_
*181 _087_
*182 _088_
*183 _089_
*184 _090_
*185 _091_
*186 _092_
*187 _093_
*188 _094_
*189 _095_
*190 _096_
*191 _097_
*192 _098_
*193 _099_
*194 _100_
*195 _101_
*196 _102_
*197 _103_
*198 _104_
*199 _105_
*200 _106_
*201 _107_
*202 _108_
*203 _109_
*204 _110_
*205 _111_
*206 _112_
*207 _113_
*208 _114_
*209 _115_
*210 _116_
*211 _117_
*212 _118_
*213 _119_
*214 _120_
*215 _121_
*216 _122_
*217 _123_
*218 _124_
*219 _125_
*220 _126_
*221 _127_
*222 _128_
*223 _129_
*224 _130_
*225 _131_
*226 _132_
*227 _133_
*228 _134_
*229 _135_
*230 _136_
*231 _137_
*232 _138_
*233 _139_
*234 _140_
*235 _141_
*236 _142_
*237 _143_
*238 _144_
*239 _145_
*240 _146_
*241 _147_
*242 _148_
*243 _149_
*244 _150_
*245 _151_
*246 _152_
*247 _153_
*248 _154_
*249 _155_
*250 _156_
*251 _157_
*252 _158_
*253 _159_
*254 _160_
*255 _161_
*256 _162_
*257 _163_
*258 _164_
*259 _165_
*260 _166_
*261 _167_
*262 _168_
*263 _169_
*264 _170_
*265 _171_
*266 _172_
*267 _173_
*268 _174_
*269 _175_
*270 _176_
*271 _177_
*272 _178_
*273 _179_
*274 _180_
*275 _181_
*276 _182_
*277 _183_
*278 _184_
*279 _185_
*280 _186_
*281 _187_
*282 _188_
*283 _189_
*284 _190_
*285 _191_
*286 _192_
*287 _193_
*288 _194_
*289 _195_
*290 _196_
*291 _197_
*292 _198_
*293 _199_
*294 _200_
*295 _201_
*296 _202_
*297 _203_
*298 _204_
*299 mem_left_ipin_0\.DFFR_0_\.Q
*300 mem_left_ipin_0\.DFFR_1_\.Q
*301 mem_left_ipin_0\.DFFR_2_\.Q
*302 mem_left_ipin_0\.DFFR_3_\.Q
*303 mem_left_ipin_0\.DFFR_4_\.Q
*304 mem_left_ipin_0\.DFFR_5_\.Q
*305 mem_left_ipin_1\.DFFR_0_\.Q
*306 mem_left_ipin_1\.DFFR_1_\.Q
*307 mem_left_ipin_1\.DFFR_2_\.Q
*308 mem_left_ipin_1\.DFFR_3_\.Q
*309 mem_left_ipin_1\.DFFR_4_\.Q
*310 mem_left_ipin_1\.DFFR_5_\.Q
*311 mem_left_ipin_2\.DFFR_0_\.Q
*312 mem_left_ipin_2\.DFFR_1_\.Q
*313 mem_left_ipin_2\.DFFR_2_\.Q
*314 mem_left_ipin_2\.DFFR_3_\.Q
*315 mem_left_ipin_2\.DFFR_4_\.Q
*316 mem_left_ipin_2\.DFFR_5_\.Q
*317 mem_left_ipin_3\.DFFR_0_\.Q
*318 mem_left_ipin_3\.DFFR_1_\.Q
*319 mem_left_ipin_3\.DFFR_2_\.Q
*320 mem_left_ipin_3\.DFFR_3_\.Q
*321 mem_left_ipin_3\.DFFR_4_\.Q
*322 mem_left_ipin_3\.DFFR_5_\.Q
*323 mem_left_ipin_4\.DFFR_0_\.Q
*324 mem_left_ipin_4\.DFFR_1_\.Q
*325 mem_left_ipin_4\.DFFR_2_\.Q
*326 mem_left_ipin_4\.DFFR_3_\.Q
*327 mem_left_ipin_4\.DFFR_4_\.Q
*328 mem_left_ipin_4\.DFFR_5_\.Q
*329 mem_left_ipin_5\.DFFR_0_\.Q
*330 mem_left_ipin_5\.DFFR_1_\.Q
*331 mem_left_ipin_5\.DFFR_2_\.Q
*332 mem_left_ipin_5\.DFFR_3_\.Q
*333 mem_left_ipin_5\.DFFR_4_\.Q
*334 mem_left_ipin_5\.DFFR_5_\.Q
*335 mem_left_ipin_6\.DFFR_0_\.Q
*336 mem_left_ipin_6\.DFFR_1_\.Q
*337 mem_left_ipin_6\.DFFR_2_\.Q
*338 mem_left_ipin_6\.DFFR_3_\.Q
*339 mem_left_ipin_6\.DFFR_4_\.Q
*340 mem_left_ipin_6\.DFFR_5_\.Q
*341 mem_left_ipin_7\.DFFR_0_\.Q
*342 mem_left_ipin_7\.DFFR_1_\.Q
*343 mem_left_ipin_7\.DFFR_2_\.Q
*344 mem_left_ipin_7\.DFFR_3_\.Q
*345 mem_left_ipin_7\.DFFR_4_\.Q
*346 mem_left_ipin_7\.DFFR_5_\.Q
*347 mem_right_ipin_0\.DFFR_0_\.Q
*348 mem_right_ipin_0\.DFFR_1_\.Q
*349 mem_right_ipin_0\.DFFR_2_\.Q
*350 mem_right_ipin_0\.DFFR_3_\.Q
*351 mem_right_ipin_0\.DFFR_4_\.Q
*352 mem_right_ipin_0\.DFFR_5_\.Q
*353 mem_right_ipin_1\.DFFR_0_\.Q
*354 mem_right_ipin_1\.DFFR_1_\.Q
*355 mem_right_ipin_1\.DFFR_2_\.Q
*356 mem_right_ipin_1\.DFFR_3_\.Q
*357 mem_right_ipin_1\.DFFR_4_\.Q
*358 mem_right_ipin_1\.DFFR_5_\.Q
*359 mem_right_ipin_2\.DFFR_0_\.Q
*360 mem_right_ipin_2\.DFFR_1_\.Q
*361 mem_right_ipin_2\.DFFR_2_\.Q
*362 mem_right_ipin_2\.DFFR_3_\.Q
*363 mem_right_ipin_2\.DFFR_4_\.Q
*364 mux_left_ipin_0\.INVTX1_0_\.out
*365 mux_left_ipin_0\.INVTX1_1_\.out
*366 mux_left_ipin_0\.INVTX1_2_\.out
*367 mux_left_ipin_0\.INVTX1_3_\.out
*368 mux_left_ipin_0\.INVTX1_4_\.out
*369 mux_left_ipin_0\.INVTX1_5_\.out
*370 mux_left_ipin_0\.INVTX1_6_\.out
*371 mux_left_ipin_0\.INVTX1_7_\.out
*372 mux_left_ipin_0\.mux_2level_tapbuf_basis_input3_mem3_0_out
*373 mux_left_ipin_0\.mux_2level_tapbuf_basis_input3_mem3_1_out
*374 mux_left_ipin_0\.mux_2level_tapbuf_basis_input3_mem3_2_out
*375 mux_left_ipin_0\.mux_2level_tapbuf_basis_input3_mem3_3_out
*376 mux_left_ipin_1\.INVTX1_2_\.out
*377 mux_left_ipin_1\.INVTX1_3_\.out
*378 mux_left_ipin_1\.INVTX1_4_\.out
*379 mux_left_ipin_1\.INVTX1_5_\.out
*380 mux_left_ipin_1\.INVTX1_6_\.out
*381 mux_left_ipin_1\.INVTX1_7_\.out
*382 mux_left_ipin_1\.mux_2level_tapbuf_basis_input3_mem3_0_out
*383 mux_left_ipin_1\.mux_2level_tapbuf_basis_input3_mem3_1_out
*384 mux_left_ipin_1\.mux_2level_tapbuf_basis_input3_mem3_2_out
*385 mux_left_ipin_1\.mux_2level_tapbuf_basis_input3_mem3_3_out
*386 mux_left_ipin_2\.INVTX1_2_\.out
*387 mux_left_ipin_2\.INVTX1_3_\.out
*388 mux_left_ipin_2\.INVTX1_4_\.out
*389 mux_left_ipin_2\.INVTX1_5_\.out
*390 mux_left_ipin_2\.INVTX1_6_\.out
*391 mux_left_ipin_2\.INVTX1_7_\.out
*392 mux_left_ipin_2\.mux_2level_tapbuf_basis_input3_mem3_0_out
*393 mux_left_ipin_2\.mux_2level_tapbuf_basis_input3_mem3_1_out
*394 mux_left_ipin_2\.mux_2level_tapbuf_basis_input3_mem3_2_out
*395 mux_left_ipin_2\.mux_2level_tapbuf_basis_input3_mem3_3_out
*396 mux_left_ipin_3\.INVTX1_2_\.out
*397 mux_left_ipin_3\.INVTX1_3_\.out
*398 mux_left_ipin_3\.INVTX1_4_\.out
*399 mux_left_ipin_3\.INVTX1_5_\.out
*400 mux_left_ipin_3\.INVTX1_6_\.out
*401 mux_left_ipin_3\.INVTX1_7_\.out
*402 mux_left_ipin_3\.mux_2level_tapbuf_basis_input3_mem3_0_out
*403 mux_left_ipin_3\.mux_2level_tapbuf_basis_input3_mem3_1_out
*404 mux_left_ipin_3\.mux_2level_tapbuf_basis_input3_mem3_2_out
*405 mux_left_ipin_3\.mux_2level_tapbuf_basis_input3_mem3_3_out
*406 mux_left_ipin_4\.INVTX1_2_\.out
*407 mux_left_ipin_4\.INVTX1_3_\.out
*408 mux_left_ipin_4\.INVTX1_4_\.out
*409 mux_left_ipin_4\.INVTX1_5_\.out
*410 mux_left_ipin_4\.INVTX1_6_\.out
*411 mux_left_ipin_4\.INVTX1_7_\.out
*412 mux_left_ipin_4\.mux_2level_tapbuf_basis_input3_mem3_0_out
*413 mux_left_ipin_4\.mux_2level_tapbuf_basis_input3_mem3_1_out
*414 mux_left_ipin_4\.mux_2level_tapbuf_basis_input3_mem3_2_out
*415 mux_left_ipin_4\.mux_2level_tapbuf_basis_input3_mem3_3_out
*416 mux_left_ipin_5\.INVTX1_2_\.out
*417 mux_left_ipin_5\.INVTX1_3_\.out
*418 mux_left_ipin_5\.INVTX1_4_\.out
*419 mux_left_ipin_5\.INVTX1_5_\.out
*420 mux_left_ipin_5\.INVTX1_6_\.out
*421 mux_left_ipin_5\.INVTX1_7_\.out
*422 mux_left_ipin_5\.mux_2level_tapbuf_basis_input3_mem3_0_out
*423 mux_left_ipin_5\.mux_2level_tapbuf_basis_input3_mem3_1_out
*424 mux_left_ipin_5\.mux_2level_tapbuf_basis_input3_mem3_2_out
*425 mux_left_ipin_5\.mux_2level_tapbuf_basis_input3_mem3_3_out
*426 mux_left_ipin_6\.mux_2level_tapbuf_basis_input3_mem3_0_out
*427 mux_left_ipin_6\.mux_2level_tapbuf_basis_input3_mem3_1_out
*428 mux_left_ipin_6\.mux_2level_tapbuf_basis_input3_mem3_2_out
*429 mux_left_ipin_6\.mux_2level_tapbuf_basis_input3_mem3_3_out
*430 mux_left_ipin_7\.mux_2level_tapbuf_basis_input3_mem3_0_out
*431 mux_left_ipin_7\.mux_2level_tapbuf_basis_input3_mem3_1_out
*432 mux_left_ipin_7\.mux_2level_tapbuf_basis_input3_mem3_2_out
*433 mux_left_ipin_7\.mux_2level_tapbuf_basis_input3_mem3_3_out
*434 mux_right_ipin_0\.mux_2level_tapbuf_basis_input3_mem3_0_out
*435 mux_right_ipin_0\.mux_2level_tapbuf_basis_input3_mem3_1_out
*436 mux_right_ipin_0\.mux_2level_tapbuf_basis_input3_mem3_2_out
*437 mux_right_ipin_0\.mux_2level_tapbuf_basis_input3_mem3_3_out
*438 mux_right_ipin_1\.mux_2level_tapbuf_basis_input3_mem3_0_out
*439 mux_right_ipin_1\.mux_2level_tapbuf_basis_input3_mem3_1_out
*440 mux_right_ipin_1\.mux_2level_tapbuf_basis_input3_mem3_2_out
*441 mux_right_ipin_1\.mux_2level_tapbuf_basis_input3_mem3_3_out
*442 mux_right_ipin_2\.mux_2level_tapbuf_basis_input3_mem3_0_out
*443 mux_right_ipin_2\.mux_2level_tapbuf_basis_input3_mem3_1_out
*444 mux_right_ipin_2\.mux_2level_tapbuf_basis_input3_mem3_2_out
*445 mux_right_ipin_2\.mux_2level_tapbuf_basis_input3_mem3_3_out
*446 net1
*447 net10
*448 net100
*449 net101
*450 net11
*451 net12
*452 net13
*453 net14
*454 net15
*455 net16
*456 net17
*457 net18
*458 net19
*459 net2
*460 net20
*461 net21
*462 net22
*463 net23
*464 net24
*465 net25
*466 net26
*467 net27
*468 net28
*469 net29
*470 net3
*471 net30
*472 net31
*473 net32
*474 net33
*475 net34
*476 net35
*477 net36
*478 net37
*479 net38
*480 net39
*481 net4
*482 net40
*483 net41
*484 net42
*485 net43
*486 net44
*487 net45
*488 net46
*489 net47
*490 net48
*491 net49
*492 net5
*493 net50
*494 net51
*495 net52
*496 net53
*497 net54
*498 net55
*499 net56
*500 net57
*501 net58
*502 net59
*503 net6
*504 net60
*505 net61
*506 net62
*507 net63
*508 net64
*509 net65
*510 net66
*511 net67
*512 net68
*513 net69
*514 net7
*515 net70
*516 net71
*517 net72
*518 net73
*519 net74
*520 net75
*521 net76
*522 net77
*523 net78
*524 net79
*525 net8
*526 net80
*527 net81
*528 net82
*529 net83
*530 net84
*531 net85
*532 net86
*533 net87
*534 net88
*535 net89
*536 net9
*537 net90
*538 net91
*539 net92
*540 net93
*541 net94
*542 net95
*543 net96
*544 net97
*545 net98
*546 net99
*547 ANTENNA__217__A
*548 ANTENNA__218__A
*549 ANTENNA__219__A
*550 ANTENNA__220__A
*551 ANTENNA__221__A
*552 ANTENNA__222__A
*553 ANTENNA__223__A
*554 ANTENNA__225__A
*555 ANTENNA__226__A
*556 ANTENNA__227__A
*557 ANTENNA__229__A
*558 ANTENNA__231__A
*559 ANTENNA__233__A
*560 ANTENNA__235__A
*561 ANTENNA__236__A
*562 ANTENNA__237__A
*563 ANTENNA__239__A
*564 ANTENNA__240__A
*565 ANTENNA__242__A
*566 ANTENNA__244__A
*567 ANTENNA__246__A
*568 ANTENNA__250__A
*569 ANTENNA__252__A
*570 ANTENNA__254__A
*571 ANTENNA__256__A
*572 ANTENNA__258__A
*573 ANTENNA__260__A
*574 ANTENNA__262__A
*575 ANTENNA__265__A
*576 ANTENNA__267__A
*577 ANTENNA__269__A
*578 ANTENNA__271__A
*579 ANTENNA__273__A
*580 ANTENNA__275__A
*581 ANTENNA__277__A
*582 ANTENNA__278__A
*583 ANTENNA__281__A
*584 ANTENNA__282__A
*585 ANTENNA__285__A
*586 ANTENNA__286__A
*587 ANTENNA__290__A
*588 ANTENNA__291__A
*589 ANTENNA__294__A
*590 ANTENNA__295__A
*591 ANTENNA__298__A
*592 ANTENNA__299__A
*593 ANTENNA__302__A
*594 ANTENNA__306__A
*595 ANTENNA__310__A
*596 ANTENNA__314__A
*597 ANTENNA__318__A
*598 ANTENNA__322__A
*599 ANTENNA__325__A
*600 ANTENNA__327__A
*601 ANTENNA__329__A
*602 ANTENNA__331__A
*603 ANTENNA__333__A
*604 ANTENNA__334__A
*605 ANTENNA__337__A
*606 ANTENNA__339__A
*607 ANTENNA__341__A
*608 ANTENNA__343__A
*609 ANTENNA__345__A
*610 ANTENNA__347__A
*611 ANTENNA__348__A
*612 ANTENNA__349__A
*613 ANTENNA__350__A
*614 ANTENNA__353__A
*615 ANTENNA__354__A
*616 ANTENNA__355__A
*617 ANTENNA__356__A
*618 ANTENNA__357__A
*619 ANTENNA__358__A
*620 ANTENNA__359__A
*621 ANTENNA__360__A
*622 ANTENNA__361__A
*623 ANTENNA__362__A
*624 ANTENNA__363__A
*625 ANTENNA__364__A
*626 ANTENNA__365__A
*627 ANTENNA__367__A
*628 ANTENNA__368__A
*629 ANTENNA__369__A
*630 ANTENNA__370__A
*631 ANTENNA__371__A
*632 ANTENNA__372__A
*633 ANTENNA__374__A
*634 ANTENNA__375__A
*635 ANTENNA__377__A
*636 ANTENNA__379__A
*637 ANTENNA__380__A
*638 ANTENNA__381__A
*639 ANTENNA__382__A
*640 ANTENNA__383__A
*641 ANTENNA__384__A
*642 ANTENNA__387__A
*643 ANTENNA__389__A
*644 ANTENNA__392__A
*645 ANTENNA__395__A
*646 ANTENNA__397__A
*647 ANTENNA__442__A
*648 ANTENNA__453__A
*649 ANTENNA__470__CLK
*650 ANTENNA__471__CLK
*651 ANTENNA__472__CLK
*652 ANTENNA__472__D
*653 ANTENNA__473__CLK
*654 ANTENNA__474__CLK
*655 ANTENNA__474__D
*656 ANTENNA__475__CLK
*657 ANTENNA__475__D
*658 ANTENNA__475__RESET_B
*659 ANTENNA__476__CLK
*660 ANTENNA__477__CLK
*661 ANTENNA__478__CLK
*662 ANTENNA__478__D
*663 ANTENNA__479__CLK
*664 ANTENNA__480__CLK
*665 ANTENNA__480__D
*666 ANTENNA__481__CLK
*667 ANTENNA__482__CLK
*668 ANTENNA__483__CLK
*669 ANTENNA__484__CLK
*670 ANTENNA__484__D
*671 ANTENNA__485__CLK
*672 ANTENNA__486__CLK
*673 ANTENNA__487__CLK
*674 ANTENNA__488__CLK
*675 ANTENNA__489__CLK
*676 ANTENNA__490__CLK
*677 ANTENNA__490__D
*678 ANTENNA__491__CLK
*679 ANTENNA__492__CLK
*680 ANTENNA__493__CLK
*681 ANTENNA__494__CLK
*682 ANTENNA__495__CLK
*683 ANTENNA__496__CLK
*684 ANTENNA__496__D
*685 ANTENNA__497__CLK
*686 ANTENNA__497__D
*687 ANTENNA__498__CLK
*688 ANTENNA__499__CLK
*689 ANTENNA__500__CLK
*690 ANTENNA__501__CLK
*691 ANTENNA__502__CLK
*692 ANTENNA__502__D
*693 ANTENNA__503__CLK
*694 ANTENNA__504__CLK
*695 ANTENNA__504__D
*696 ANTENNA__505__CLK
*697 ANTENNA__506__CLK
*698 ANTENNA__507__CLK
*699 ANTENNA__508__CLK
*700 ANTENNA__509__CLK
*701 ANTENNA__509__D
*702 ANTENNA__510__CLK
*703 ANTENNA__510__D
*704 ANTENNA__511__CLK
*705 ANTENNA__512__CLK
*706 ANTENNA__512__D
*707 ANTENNA__513__CLK
*708 ANTENNA__513__D
*709 ANTENNA__514__CLK
*710 ANTENNA__514__D
*711 ANTENNA__515__CLK
*712 ANTENNA__516__CLK
*713 ANTENNA__517__CLK
*714 ANTENNA__518__CLK
*715 ANTENNA__519__CLK
*716 ANTENNA__519__D
*717 ANTENNA__520__CLK
*718 ANTENNA__520__D
*719 ANTENNA__521__CLK
*720 ANTENNA__522__CLK
*721 ANTENNA__523__CLK
*722 ANTENNA__523__D
*723 ANTENNA__524__CLK
*724 ANTENNA__524__D
*725 ANTENNA__525__CLK
*726 ANTENNA__526__CLK
*727 ANTENNA__527__CLK
*728 ANTENNA__527__D
*729 ANTENNA__528__CLK
*730 ANTENNA__528__D
*731 ANTENNA__529__CLK
*732 ANTENNA__529__D
*733 ANTENNA__530__CLK
*734 ANTENNA__531__CLK
*735 ANTENNA__532__CLK
*736 ANTENNA__532__D
*737 ANTENNA__533__CLK
*738 ANTENNA__533__D
*739 ANTENNA__534__CLK
*740 ANTENNA__534__D
*741 ANTENNA__535__CLK
*742 ANTENNA__547__A
*743 ANTENNA__548__A
*744 ANTENNA__549__A
*745 ANTENNA__551__A
*746 ANTENNA__552__A
*747 ANTENNA__553__A
*748 ANTENNA__554__A
*749 ANTENNA__555__A
*750 ANTENNA__557__A
*751 ANTENNA__558__A
*752 ANTENNA__559__A
*753 ANTENNA__560__A
*754 ANTENNA__561__A
*755 ANTENNA__563__A
*756 ANTENNA__565__A
*757 ANTENNA__566__A
*758 ANTENNA__567__A
*759 ANTENNA__570__A
*760 ANTENNA__571__A
*761 ANTENNA__572__A
*762 ANTENNA__573__A
*763 ANTENNA__574__A
*764 ANTENNA__575__A
*765 ANTENNA__576__A
*766 ANTENNA__579__A
*767 ANTENNA__580__A
*768 ANTENNA__581__A
*769 ANTENNA__582__A
*770 ANTENNA__583__A
*771 ANTENNA__584__A
*772 ANTENNA__611__A
*773 ANTENNA__653__A
*774 ANTENNA__683__A
*775 ANTENNA_input10_A
*776 ANTENNA_input11_A
*777 ANTENNA_input12_A
*778 ANTENNA_input13_A
*779 ANTENNA_input14_A
*780 ANTENNA_input15_A
*781 ANTENNA_input16_A
*782 ANTENNA_input17_A
*783 ANTENNA_input18_A
*784 ANTENNA_input19_A
*785 ANTENNA_input1_A
*786 ANTENNA_input20_A
*787 ANTENNA_input21_A
*788 ANTENNA_input22_A
*789 ANTENNA_input23_A
*790 ANTENNA_input24_A
*791 ANTENNA_input25_A
*792 ANTENNA_input26_A
*793 ANTENNA_input27_A
*794 ANTENNA_input28_A
*795 ANTENNA_input29_A
*796 ANTENNA_input2_A
*797 ANTENNA_input30_A
*798 ANTENNA_input31_A
*799 ANTENNA_input32_A
*800 ANTENNA_input33_A
*801 ANTENNA_input34_A
*802 ANTENNA_input35_A
*803 ANTENNA_input36_A
*804 ANTENNA_input37_A
*805 ANTENNA_input38_A
*806 ANTENNA_input39_A
*807 ANTENNA_input3_A
*808 ANTENNA_input40_A
*809 ANTENNA_input4_A
*810 ANTENNA_input5_A
*811 ANTENNA_input6_A
*812 ANTENNA_input7_A
*813 ANTENNA_input8_A
*814 ANTENNA_input9_A
*815 ANTENNA_output41_A
*816 ANTENNA_output43_A
*817 ANTENNA_output52_A
*818 ANTENNA_output55_A
*819 ANTENNA_output57_A
*820 ANTENNA_output61_A
*821 ANTENNA_output62_A
*822 ANTENNA_output65_A
*823 ANTENNA_output66_A
*824 ANTENNA_output72_A
*825 ANTENNA_output76_A
*826 ANTENNA_output78_A
*827 ANTENNA_output79_A
*828 FILLER_0_110
*829 FILLER_0_113
*830 FILLER_0_117
*831 FILLER_0_138
*832 FILLER_0_141
*833 FILLER_0_145
*834 FILLER_0_166
*835 FILLER_0_169
*836 FILLER_0_17
*837 FILLER_0_173
*838 FILLER_0_194
*839 FILLER_0_197
*840 FILLER_0_21
*841 FILLER_0_222
*842 FILLER_0_225
*843 FILLER_0_247
*844 FILLER_0_251
*845 FILLER_0_253
*846 FILLER_0_26
*847 FILLER_0_275
*848 FILLER_0_279
*849 FILLER_0_281
*850 FILLER_0_287
*851 FILLER_0_29
*852 FILLER_0_295
*853 FILLER_0_3
*854 FILLER_0_302
*855 FILLER_0_309
*856 FILLER_0_314
*857 FILLER_0_322
*858 FILLER_0_329
*859 FILLER_0_33
*860 FILLER_0_335
*861 FILLER_0_337
*862 FILLER_0_342
*863 FILLER_0_349
*864 FILLER_0_355
*865 FILLER_0_361
*866 FILLER_0_365
*867 FILLER_0_37
*868 FILLER_0_371
*869 FILLER_0_379
*870 FILLER_0_385
*871 FILLER_0_390
*872 FILLER_0_393
*873 FILLER_0_399
*874 FILLER_0_42
*875 FILLER_0_50
*876 FILLER_0_54
*877 FILLER_0_57
*878 FILLER_0_63
*879 FILLER_0_67
*880 FILLER_0_70
*881 FILLER_0_76
*882 FILLER_0_82
*883 FILLER_0_85
*884 FILLER_0_9
*885 FILLER_0_91
*886 FILLER_0_98
*887 FILLER_10_105
*888 FILLER_10_108
*889 FILLER_10_114
*890 FILLER_10_120
*891 FILLER_10_127
*892 FILLER_10_134
*893 FILLER_10_141
*894 FILLER_10_145
*895 FILLER_10_15
*896 FILLER_10_167
*897 FILLER_10_194
*898 FILLER_10_197
*899 FILLER_10_220
*900 FILLER_10_245
*901 FILLER_10_251
*902 FILLER_10_253
*903 FILLER_10_260
*904 FILLER_10_267
*905 FILLER_10_27
*906 FILLER_10_274
*907 FILLER_10_281
*908 FILLER_10_288
*909 FILLER_10_29
*910 FILLER_10_295
*911 FILLER_10_3
*912 FILLER_10_302
*913 FILLER_10_309
*914 FILLER_10_314
*915 FILLER_10_321
*916 FILLER_10_333
*917 FILLER_10_345
*918 FILLER_10_357
*919 FILLER_10_363
*920 FILLER_10_365
*921 FILLER_10_377
*922 FILLER_10_389
*923 FILLER_10_401
*924 FILLER_10_41
*925 FILLER_10_53
*926 FILLER_10_65
*927 FILLER_10_77
*928 FILLER_10_83
*929 FILLER_10_85
*930 FILLER_10_97
*931 FILLER_11_101
*932 FILLER_11_104
*933 FILLER_11_110
*934 FILLER_11_113
*935 FILLER_11_117
*936 FILLER_11_141
*937 FILLER_11_15
*938 FILLER_11_166
*939 FILLER_11_169
*940 FILLER_11_175
*941 FILLER_11_179
*942 FILLER_11_20
*943 FILLER_11_206
*944 FILLER_11_213
*945 FILLER_11_220
*946 FILLER_11_225
*947 FILLER_11_248
*948 FILLER_11_254
*949 FILLER_11_267
*950 FILLER_11_274
*951 FILLER_11_281
*952 FILLER_11_286
*953 FILLER_11_293
*954 FILLER_11_3
*955 FILLER_11_300
*956 FILLER_11_307
*957 FILLER_11_314
*958 FILLER_11_32
*959 FILLER_11_321
*960 FILLER_11_333
*961 FILLER_11_337
*962 FILLER_11_349
*963 FILLER_11_361
*964 FILLER_11_373
*965 FILLER_11_385
*966 FILLER_11_391
*967 FILLER_11_393
*968 FILLER_11_397
*969 FILLER_11_405
*970 FILLER_11_44
*971 FILLER_11_57
*972 FILLER_11_69
*973 FILLER_11_7
*974 FILLER_11_81
*975 FILLER_11_93
*976 FILLER_12_101
*977 FILLER_12_108
*978 FILLER_12_115
*979 FILLER_12_128
*980 FILLER_12_134
*981 FILLER_12_138
*982 FILLER_12_141
*983 FILLER_12_15
*984 FILLER_12_167
*985 FILLER_12_194
*986 FILLER_12_197
*987 FILLER_12_202
*988 FILLER_12_206
*989 FILLER_12_210
*990 FILLER_12_217
*991 FILLER_12_221
*992 FILLER_12_245
*993 FILLER_12_251
*994 FILLER_12_253
*995 FILLER_12_258
*996 FILLER_12_266
*997 FILLER_12_27
*998 FILLER_12_276
*999 FILLER_12_289
*1000 FILLER_12_29
*1001 FILLER_12_296
*1002 FILLER_12_3
*1003 FILLER_12_303
*1004 FILLER_12_307
*1005 FILLER_12_309
*1006 FILLER_12_317
*1007 FILLER_12_323
*1008 FILLER_12_335
*1009 FILLER_12_347
*1010 FILLER_12_353
*1011 FILLER_12_361
*1012 FILLER_12_365
*1013 FILLER_12_377
*1014 FILLER_12_389
*1015 FILLER_12_401
*1016 FILLER_12_41
*1017 FILLER_12_53
*1018 FILLER_12_65
*1019 FILLER_12_77
*1020 FILLER_12_83
*1021 FILLER_12_85
*1022 FILLER_12_95
*1023 FILLER_13_103
*1024 FILLER_13_110
*1025 FILLER_13_113
*1026 FILLER_13_119
*1027 FILLER_13_132
*1028 FILLER_13_141
*1029 FILLER_13_15
*1030 FILLER_13_166
*1031 FILLER_13_169
*1032 FILLER_13_181
*1033 FILLER_13_208
*1034 FILLER_13_215
*1035 FILLER_13_222
*1036 FILLER_13_225
*1037 FILLER_13_248
*1038 FILLER_13_255
*1039 FILLER_13_268
*1040 FILLER_13_27
*1041 FILLER_13_275
*1042 FILLER_13_279
*1043 FILLER_13_281
*1044 FILLER_13_286
*1045 FILLER_13_293
*1046 FILLER_13_299
*1047 FILLER_13_3
*1048 FILLER_13_313
*1049 FILLER_13_319
*1050 FILLER_13_325
*1051 FILLER_13_331
*1052 FILLER_13_335
*1053 FILLER_13_337
*1054 FILLER_13_349
*1055 FILLER_13_357
*1056 FILLER_13_363
*1057 FILLER_13_375
*1058 FILLER_13_387
*1059 FILLER_13_39
*1060 FILLER_13_391
*1061 FILLER_13_393
*1062 FILLER_13_405
*1063 FILLER_13_51
*1064 FILLER_13_55
*1065 FILLER_13_57
*1066 FILLER_13_69
*1067 FILLER_13_81
*1068 FILLER_13_84
*1069 FILLER_13_90
*1070 FILLER_13_96
*1071 FILLER_14_104
*1072 FILLER_14_111
*1073 FILLER_14_124
*1074 FILLER_14_137
*1075 FILLER_14_141
*1076 FILLER_14_145
*1077 FILLER_14_167
*1078 FILLER_14_19
*1079 FILLER_14_194
*1080 FILLER_14_197
*1081 FILLER_14_202
*1082 FILLER_14_208
*1083 FILLER_14_218
*1084 FILLER_14_222
*1085 FILLER_14_244
*1086 FILLER_14_250
*1087 FILLER_14_253
*1088 FILLER_14_257
*1089 FILLER_14_27
*1090 FILLER_14_271
*1091 FILLER_14_284
*1092 FILLER_14_29
*1093 FILLER_14_291
*1094 FILLER_14_297
*1095 FILLER_14_3
*1096 FILLER_14_304
*1097 FILLER_14_309
*1098 FILLER_14_317
*1099 FILLER_14_329
*1100 FILLER_14_341
*1101 FILLER_14_353
*1102 FILLER_14_361
*1103 FILLER_14_365
*1104 FILLER_14_377
*1105 FILLER_14_389
*1106 FILLER_14_401
*1107 FILLER_14_41
*1108 FILLER_14_53
*1109 FILLER_14_65
*1110 FILLER_14_7
*1111 FILLER_14_77
*1112 FILLER_14_82
*1113 FILLER_14_85
*1114 FILLER_14_90
*1115 FILLER_14_97
*1116 FILLER_15_103
*1117 FILLER_15_110
*1118 FILLER_15_113
*1119 FILLER_15_117
*1120 FILLER_15_127
*1121 FILLER_15_140
*1122 FILLER_15_153
*1123 FILLER_15_166
*1124 FILLER_15_169
*1125 FILLER_15_196
*1126 FILLER_15_200
*1127 FILLER_15_21
*1128 FILLER_15_222
*1129 FILLER_15_225
*1130 FILLER_15_248
*1131 FILLER_15_261
*1132 FILLER_15_274
*1133 FILLER_15_281
*1134 FILLER_15_292
*1135 FILLER_15_296
*1136 FILLER_15_3
*1137 FILLER_15_303
*1138 FILLER_15_309
*1139 FILLER_15_315
*1140 FILLER_15_327
*1141 FILLER_15_33
*1142 FILLER_15_335
*1143 FILLER_15_337
*1144 FILLER_15_349
*1145 FILLER_15_361
*1146 FILLER_15_373
*1147 FILLER_15_385
*1148 FILLER_15_391
*1149 FILLER_15_393
*1150 FILLER_15_397
*1151 FILLER_15_405
*1152 FILLER_15_45
*1153 FILLER_15_53
*1154 FILLER_15_57
*1155 FILLER_15_69
*1156 FILLER_15_75
*1157 FILLER_15_78
*1158 FILLER_15_84
*1159 FILLER_15_9
*1160 FILLER_15_92
*1161 FILLER_15_96
*1162 FILLER_16_103
*1163 FILLER_16_112
*1164 FILLER_16_125
*1165 FILLER_16_138
*1166 FILLER_16_141
*1167 FILLER_16_15
*1168 FILLER_16_151
*1169 FILLER_16_164
*1170 FILLER_16_189
*1171 FILLER_16_195
*1172 FILLER_16_197
*1173 FILLER_16_207
*1174 FILLER_16_220
*1175 FILLER_16_233
*1176 FILLER_16_246
*1177 FILLER_16_253
*1178 FILLER_16_264
*1179 FILLER_16_27
*1180 FILLER_16_277
*1181 FILLER_16_29
*1182 FILLER_16_290
*1183 FILLER_16_297
*1184 FILLER_16_3
*1185 FILLER_16_303
*1186 FILLER_16_307
*1187 FILLER_16_309
*1188 FILLER_16_313
*1189 FILLER_16_325
*1190 FILLER_16_337
*1191 FILLER_16_349
*1192 FILLER_16_361
*1193 FILLER_16_365
*1194 FILLER_16_377
*1195 FILLER_16_389
*1196 FILLER_16_401
*1197 FILLER_16_41
*1198 FILLER_16_53
*1199 FILLER_16_65
*1200 FILLER_16_73
*1201 FILLER_16_76
*1202 FILLER_16_82
*1203 FILLER_16_85
*1204 FILLER_16_90
*1205 FILLER_17_103
*1206 FILLER_17_110
*1207 FILLER_17_113
*1208 FILLER_17_117
*1209 FILLER_17_121
*1210 FILLER_17_134
*1211 FILLER_17_15
*1212 FILLER_17_151
*1213 FILLER_17_166
*1214 FILLER_17_169
*1215 FILLER_17_176
*1216 FILLER_17_189
*1217 FILLER_17_202
*1218 FILLER_17_215
*1219 FILLER_17_222
*1220 FILLER_17_225
*1221 FILLER_17_236
*1222 FILLER_17_240
*1223 FILLER_17_250
*1224 FILLER_17_267
*1225 FILLER_17_27
*1226 FILLER_17_274
*1227 FILLER_17_281
*1228 FILLER_17_286
*1229 FILLER_17_293
*1230 FILLER_17_3
*1231 FILLER_17_300
*1232 FILLER_17_306
*1233 FILLER_17_312
*1234 FILLER_17_324
*1235 FILLER_17_337
*1236 FILLER_17_349
*1237 FILLER_17_361
*1238 FILLER_17_373
*1239 FILLER_17_385
*1240 FILLER_17_39
*1241 FILLER_17_391
*1242 FILLER_17_393
*1243 FILLER_17_397
*1244 FILLER_17_405
*1245 FILLER_17_51
*1246 FILLER_17_55
*1247 FILLER_17_57
*1248 FILLER_17_65
*1249 FILLER_17_69
*1250 FILLER_17_75
*1251 FILLER_17_82
*1252 FILLER_17_89
*1253 FILLER_17_96
*1254 FILLER_18_105
*1255 FILLER_18_112
*1256 FILLER_18_125
*1257 FILLER_18_138
*1258 FILLER_18_141
*1259 FILLER_18_145
*1260 FILLER_18_15
*1261 FILLER_18_155
*1262 FILLER_18_172
*1263 FILLER_18_181
*1264 FILLER_18_194
*1265 FILLER_18_197
*1266 FILLER_18_202
*1267 FILLER_18_219
*1268 FILLER_18_231
*1269 FILLER_18_237
*1270 FILLER_18_250
*1271 FILLER_18_253
*1272 FILLER_18_264
*1273 FILLER_18_27
*1274 FILLER_18_277
*1275 FILLER_18_284
*1276 FILLER_18_29
*1277 FILLER_18_291
*1278 FILLER_18_298
*1279 FILLER_18_3
*1280 FILLER_18_305
*1281 FILLER_18_309
*1282 FILLER_18_313
*1283 FILLER_18_319
*1284 FILLER_18_331
*1285 FILLER_18_343
*1286 FILLER_18_355
*1287 FILLER_18_363
*1288 FILLER_18_365
*1289 FILLER_18_377
*1290 FILLER_18_389
*1291 FILLER_18_401
*1292 FILLER_18_41
*1293 FILLER_18_53
*1294 FILLER_18_59
*1295 FILLER_18_62
*1296 FILLER_18_68
*1297 FILLER_18_75
*1298 FILLER_18_82
*1299 FILLER_18_85
*1300 FILLER_18_91
*1301 FILLER_18_98
*1302 FILLER_19_103
*1303 FILLER_19_110
*1304 FILLER_19_113
*1305 FILLER_19_124
*1306 FILLER_19_130
*1307 FILLER_19_140
*1308 FILLER_19_153
*1309 FILLER_19_166
*1310 FILLER_19_169
*1311 FILLER_19_178
*1312 FILLER_19_195
*1313 FILLER_19_202
*1314 FILLER_19_208
*1315 FILLER_19_21
*1316 FILLER_19_222
*1317 FILLER_19_225
*1318 FILLER_19_229
*1319 FILLER_19_239
*1320 FILLER_19_252
*1321 FILLER_19_265
*1322 FILLER_19_272
*1323 FILLER_19_278
*1324 FILLER_19_281
*1325 FILLER_19_286
*1326 FILLER_19_293
*1327 FILLER_19_3
*1328 FILLER_19_300
*1329 FILLER_19_306
*1330 FILLER_19_312
*1331 FILLER_19_318
*1332 FILLER_19_324
*1333 FILLER_19_33
*1334 FILLER_19_337
*1335 FILLER_19_349
*1336 FILLER_19_361
*1337 FILLER_19_373
*1338 FILLER_19_385
*1339 FILLER_19_391
*1340 FILLER_19_393
*1341 FILLER_19_405
*1342 FILLER_19_45
*1343 FILLER_19_53
*1344 FILLER_19_57
*1345 FILLER_19_62
*1346 FILLER_19_68
*1347 FILLER_19_75
*1348 FILLER_19_82
*1349 FILLER_19_89
*1350 FILLER_19_9
*1351 FILLER_19_96
*1352 FILLER_1_102
*1353 FILLER_1_110
*1354 FILLER_1_113
*1355 FILLER_1_118
*1356 FILLER_1_142
*1357 FILLER_1_166
*1358 FILLER_1_169
*1359 FILLER_1_19
*1360 FILLER_1_195
*1361 FILLER_1_222
*1362 FILLER_1_225
*1363 FILLER_1_25
*1364 FILLER_1_250
*1365 FILLER_1_274
*1366 FILLER_1_281
*1367 FILLER_1_287
*1368 FILLER_1_294
*1369 FILLER_1_3
*1370 FILLER_1_301
*1371 FILLER_1_308
*1372 FILLER_1_315
*1373 FILLER_1_322
*1374 FILLER_1_329
*1375 FILLER_1_33
*1376 FILLER_1_335
*1377 FILLER_1_337
*1378 FILLER_1_342
*1379 FILLER_1_349
*1380 FILLER_1_356
*1381 FILLER_1_362
*1382 FILLER_1_368
*1383 FILLER_1_374
*1384 FILLER_1_380
*1385 FILLER_1_39
*1386 FILLER_1_393
*1387 FILLER_1_405
*1388 FILLER_1_46
*1389 FILLER_1_54
*1390 FILLER_1_57
*1391 FILLER_1_61
*1392 FILLER_1_67
*1393 FILLER_1_73
*1394 FILLER_1_79
*1395 FILLER_1_85
*1396 FILLER_1_9
*1397 FILLER_1_92
*1398 FILLER_20_106
*1399 FILLER_20_113
*1400 FILLER_20_125
*1401 FILLER_20_138
*1402 FILLER_20_141
*1403 FILLER_20_147
*1404 FILLER_20_15
*1405 FILLER_20_164
*1406 FILLER_20_177
*1407 FILLER_20_194
*1408 FILLER_20_197
*1409 FILLER_20_208
*1410 FILLER_20_229
*1411 FILLER_20_250
*1412 FILLER_20_253
*1413 FILLER_20_264
*1414 FILLER_20_27
*1415 FILLER_20_277
*1416 FILLER_20_284
*1417 FILLER_20_29
*1418 FILLER_20_297
*1419 FILLER_20_3