*SPEF "ieee 1481-1999"
*DESIGN "cby_0__1_"
*DATE "11:11:11 Fri 11 11, 1111"
*VENDOR "OpenRCX"
*PROGRAM "Parallel Extraction"
*VERSION "1.0"
*DESIGN_FLOW "NAME_SCOPE LOCAL" "PIN_CAP NONE"
*DIVIDER /
*DELIMITER :
*BUS_DELIMITER []
*T_UNIT 1 NS
*C_UNIT 1 PF
*R_UNIT 1 OHM
*L_UNIT 1 HENRY

*NAME_MAP
*1 ccff_head
*2 ccff_tail
*3 chany_bottom_in[0]
*4 chany_bottom_in[10]
*5 chany_bottom_in[11]
*6 chany_bottom_in[12]
*7 chany_bottom_in[13]
*8 chany_bottom_in[14]
*9 chany_bottom_in[15]
*10 chany_bottom_in[16]
*11 chany_bottom_in[17]
*12 chany_bottom_in[18]
*13 chany_bottom_in[1]
*14 chany_bottom_in[2]
*15 chany_bottom_in[3]
*16 chany_bottom_in[4]
*17 chany_bottom_in[5]
*18 chany_bottom_in[6]
*19 chany_bottom_in[7]
*20 chany_bottom_in[8]
*21 chany_bottom_in[9]
*22 chany_bottom_out[0]
*23 chany_bottom_out[10]
*24 chany_bottom_out[11]
*25 chany_bottom_out[12]
*26 chany_bottom_out[13]
*27 chany_bottom_out[14]
*28 chany_bottom_out[15]
*29 chany_bottom_out[16]
*30 chany_bottom_out[17]
*31 chany_bottom_out[18]
*32 chany_bottom_out[1]
*33 chany_bottom_out[2]
*34 chany_bottom_out[3]
*35 chany_bottom_out[4]
*36 chany_bottom_out[5]
*37 chany_bottom_out[6]
*38 chany_bottom_out[7]
*39 chany_bottom_out[8]
*40 chany_bottom_out[9]
*41 chany_top_in[0]
*42 chany_top_in[10]
*43 chany_top_in[11]
*44 chany_top_in[12]
*45 chany_top_in[13]
*46 chany_top_in[14]
*47 chany_top_in[15]
*48 chany_top_in[16]
*49 chany_top_in[17]
*50 chany_top_in[18]
*51 chany_top_in[1]
*52 chany_top_in[2]
*53 chany_top_in[3]
*54 chany_top_in[4]
*55 chany_top_in[5]
*56 chany_top_in[6]
*57 chany_top_in[7]
*58 chany_top_in[8]
*59 chany_top_in[9]
*60 chany_top_out[0]
*61 chany_top_out[10]
*62 chany_top_out[11]
*63 chany_top_out[12]
*64 chany_top_out[13]
*65 chany_top_out[14]
*66 chany_top_out[15]
*67 chany_top_out[16]
*68 chany_top_out[17]
*69 chany_top_out[18]
*70 chany_top_out[1]
*71 chany_top_out[2]
*72 chany_top_out[3]
*73 chany_top_out[4]
*74 chany_top_out[5]
*75 chany_top_out[6]
*76 chany_top_out[7]
*77 chany_top_out[8]
*78 chany_top_out[9]
*79 left_grid_right_width_0_height_0_subtile_0__pin_outpad_0_
*80 left_grid_right_width_0_height_0_subtile_1__pin_outpad_0_
*81 left_grid_right_width_0_height_0_subtile_2__pin_outpad_0_
*82 left_grid_right_width_0_height_0_subtile_3__pin_outpad_0_
*83 left_grid_right_width_0_height_0_subtile_4__pin_outpad_0_
*84 left_grid_right_width_0_height_0_subtile_5__pin_outpad_0_
*85 left_grid_right_width_0_height_0_subtile_6__pin_outpad_0_
*86 left_grid_right_width_0_height_0_subtile_7__pin_outpad_0_
*87 pReset
*88 prog_clk
*89 right_grid_left_width_0_height_0_subtile_0__pin_I_11_
*90 right_grid_left_width_0_height_0_subtile_0__pin_I_3_
*91 right_grid_left_width_0_height_0_subtile_0__pin_I_7_
*94 _000_
*95 _001_
*96 _002_
*97 _003_
*98 _004_
*99 _005_
*100 _006_
*101 _007_
*102 _008_
*103 _009_
*104 _010_
*105 _011_
*106 _012_
*107 _013_
*108 _014_
*109 _015_
*110 _016_
*111 _017_
*112 _018_
*113 _019_
*114 _020_
*115 _021_
*116 _022_
*117 _023_
*118 _024_
*119 _025_
*120 _026_
*121 _027_
*122 _028_
*123 _029_
*124 _030_
*125 _031_
*126 _032_
*127 _033_
*128 _034_
*129 _035_
*130 _036_
*131 _037_
*132 _038_
*133 _039_
*134 _040_
*135 _041_
*136 _042_
*137 _043_
*138 _044_
*139 _045_
*140 _046_
*141 _047_
*142 _048_
*143 _049_
*144 _050_
*145 _051_
*146 _052_
*147 _053_
*148 _054_
*149 _055_
*150 _056_
*151 _057_
*152 _058_
*153 _059_
*154 _060_
*155 _061_
*156 _062_
*157 _063_
*158 _064_
*159 _065_
*160 _066_
*161 _067_
*162 _068_
*163 _069_
*164 _070_
*165 _071_
*166 _072_
*167 _073_
*168 _074_
*169 _075_
*170 _076_
*171 _077_
*172 _078_
*173 _079_
*174 _080_
*175 _081_
*176 _082_
*177 _083_
*178 _084_
*179 _085_
*180 _086_
*181 _087_
*182 _088_
*183 _089_
*184 _090_
*185 _091_
*186 _092_
*187 _093_
*188 _094_
*189 _095_
*190 _096_
*191 _097_
*192 _098_
*193 _099_
*194 _100_
*195 _101_
*196 _102_
*197 _103_
*198 _104_
*199 _105_
*200 _106_
*201 _107_
*202 _108_
*203 _109_
*204 _110_
*205 _111_
*206 _112_
*207 _113_
*208 _114_
*209 _115_
*210 _116_
*211 _117_
*212 _118_
*213 _119_
*214 _120_
*215 _121_
*216 _122_
*217 _123_
*218 _124_
*219 _125_
*220 _126_
*221 _127_
*222 _128_
*223 _129_
*224 _130_
*225 _131_
*226 _132_
*227 _133_
*228 _134_
*229 _135_
*230 _136_
*231 _137_
*232 _138_
*233 _139_
*234 _140_
*235 _141_
*236 _142_
*237 _143_
*238 _144_
*239 _145_
*240 _146_
*241 _147_
*242 _148_
*243 _149_
*244 _150_
*245 _151_
*246 _152_
*247 _153_
*248 _154_
*249 _155_
*250 _156_
*251 _157_
*252 _158_
*253 _159_
*254 _160_
*255 _161_
*256 _162_
*257 _163_
*258 _164_
*259 _165_
*260 _166_
*261 _167_
*262 _168_
*263 _169_
*264 _170_
*265 _171_
*266 _172_
*267 _173_
*268 _174_
*269 _175_
*270 _176_
*271 _177_
*272 _178_
*273 _179_
*274 _180_
*275 _181_
*276 _182_
*277 _183_
*278 _184_
*279 _185_
*280 _186_
*281 _187_
*282 _188_
*283 _189_
*284 _190_
*285 _191_
*286 _192_
*287 _193_
*288 _194_
*289 _195_
*290 _196_
*291 _197_
*292 _198_
*293 _199_
*294 _200_
*295 _201_
*296 mem_left_ipin_0\.DFFR_0_\.Q
*297 mem_left_ipin_0\.DFFR_1_\.Q
*298 mem_left_ipin_0\.DFFR_2_\.Q
*299 mem_left_ipin_0\.DFFR_3_\.Q
*300 mem_left_ipin_0\.DFFR_4_\.Q
*301 mem_left_ipin_0\.DFFR_5_\.Q
*302 mem_left_ipin_1\.DFFR_0_\.Q
*303 mem_left_ipin_1\.DFFR_1_\.Q
*304 mem_left_ipin_1\.DFFR_2_\.Q
*305 mem_left_ipin_1\.DFFR_3_\.Q
*306 mem_left_ipin_1\.DFFR_4_\.Q
*307 mem_left_ipin_1\.DFFR_5_\.Q
*308 mem_left_ipin_2\.DFFR_0_\.Q
*309 mem_left_ipin_2\.DFFR_1_\.Q
*310 mem_left_ipin_2\.DFFR_2_\.Q
*311 mem_left_ipin_2\.DFFR_3_\.Q
*312 mem_left_ipin_2\.DFFR_4_\.Q
*313 mem_left_ipin_2\.DFFR_5_\.Q
*314 mem_right_ipin_0\.DFFR_0_\.Q
*315 mem_right_ipin_0\.DFFR_1_\.Q
*316 mem_right_ipin_0\.DFFR_2_\.Q
*317 mem_right_ipin_0\.DFFR_3_\.Q
*318 mem_right_ipin_0\.DFFR_4_\.Q
*319 mem_right_ipin_0\.DFFR_5_\.Q
*320 mem_right_ipin_1\.DFFR_0_\.Q
*321 mem_right_ipin_1\.DFFR_1_\.Q
*322 mem_right_ipin_1\.DFFR_2_\.Q
*323 mem_right_ipin_1\.DFFR_3_\.Q
*324 mem_right_ipin_1\.DFFR_4_\.Q
*325 mem_right_ipin_1\.DFFR_5_\.Q
*326 mem_right_ipin_2\.DFFR_0_\.Q
*327 mem_right_ipin_2\.DFFR_1_\.Q
*328 mem_right_ipin_2\.DFFR_2_\.Q
*329 mem_right_ipin_2\.DFFR_3_\.Q
*330 mem_right_ipin_2\.DFFR_4_\.Q
*331 mem_right_ipin_2\.DFFR_5_\.Q
*332 mem_right_ipin_3\.DFFR_0_\.Q
*333 mem_right_ipin_3\.DFFR_1_\.Q
*334 mem_right_ipin_3\.DFFR_2_\.Q
*335 mem_right_ipin_3\.DFFR_3_\.Q
*336 mem_right_ipin_3\.DFFR_4_\.Q
*337 mem_right_ipin_3\.DFFR_5_\.Q
*338 mem_right_ipin_4\.DFFR_0_\.Q
*339 mem_right_ipin_4\.DFFR_1_\.Q
*340 mem_right_ipin_4\.DFFR_2_\.Q
*341 mem_right_ipin_4\.DFFR_3_\.Q
*342 mem_right_ipin_4\.DFFR_4_\.Q
*343 mem_right_ipin_4\.DFFR_5_\.Q
*344 mem_right_ipin_5\.DFFR_0_\.Q
*345 mem_right_ipin_5\.DFFR_1_\.Q
*346 mem_right_ipin_5\.DFFR_2_\.Q
*347 mem_right_ipin_5\.DFFR_3_\.Q
*348 mem_right_ipin_5\.DFFR_4_\.Q
*349 mem_right_ipin_5\.DFFR_5_\.Q
*350 mem_right_ipin_6\.DFFR_0_\.Q
*351 mem_right_ipin_6\.DFFR_1_\.Q
*352 mem_right_ipin_6\.DFFR_2_\.Q
*353 mem_right_ipin_6\.DFFR_3_\.Q
*354 mem_right_ipin_6\.DFFR_4_\.Q
*355 mem_right_ipin_6\.DFFR_5_\.Q
*356 mem_right_ipin_7\.DFFR_0_\.Q
*357 mem_right_ipin_7\.DFFR_1_\.Q
*358 mem_right_ipin_7\.DFFR_2_\.Q
*359 mem_right_ipin_7\.DFFR_3_\.Q
*360 mem_right_ipin_7\.DFFR_4_\.Q
*361 mux_left_ipin_0\.INVTX1_0_\.out
*362 mux_left_ipin_0\.INVTX1_1_\.out
*363 mux_left_ipin_0\.INVTX1_2_\.out
*364 mux_left_ipin_0\.INVTX1_3_\.out
*365 mux_left_ipin_0\.INVTX1_4_\.out
*366 mux_left_ipin_0\.INVTX1_5_\.out
*367 mux_left_ipin_0\.INVTX1_6_\.out
*368 mux_left_ipin_0\.INVTX1_7_\.out
*369 mux_left_ipin_0\.mux_2level_tapbuf_basis_input3_mem3_0_out
*370 mux_left_ipin_0\.mux_2level_tapbuf_basis_input3_mem3_1_out
*371 mux_left_ipin_0\.mux_2level_tapbuf_basis_input3_mem3_2_out
*372 mux_left_ipin_0\.mux_2level_tapbuf_basis_input3_mem3_3_out
*373 mux_left_ipin_1\.INVTX1_2_\.out
*374 mux_left_ipin_1\.INVTX1_3_\.out
*375 mux_left_ipin_1\.INVTX1_4_\.out
*376 mux_left_ipin_1\.INVTX1_5_\.out
*377 mux_left_ipin_1\.INVTX1_6_\.out
*378 mux_left_ipin_1\.INVTX1_7_\.out
*379 mux_left_ipin_1\.mux_2level_tapbuf_basis_input3_mem3_0_out
*380 mux_left_ipin_1\.mux_2level_tapbuf_basis_input3_mem3_1_out
*381 mux_left_ipin_1\.mux_2level_tapbuf_basis_input3_mem3_2_out
*382 mux_left_ipin_1\.mux_2level_tapbuf_basis_input3_mem3_3_out
*383 mux_left_ipin_2\.INVTX1_2_\.out
*384 mux_left_ipin_2\.INVTX1_3_\.out
*385 mux_left_ipin_2\.INVTX1_4_\.out
*386 mux_left_ipin_2\.INVTX1_5_\.out
*387 mux_left_ipin_2\.mux_2level_tapbuf_basis_input3_mem3_0_out
*388 mux_left_ipin_2\.mux_2level_tapbuf_basis_input3_mem3_1_out
*389 mux_left_ipin_2\.mux_2level_tapbuf_basis_input3_mem3_2_out
*390 mux_right_ipin_0\.INVTX1_2_\.out
*391 mux_right_ipin_0\.INVTX1_3_\.out
*392 mux_right_ipin_0\.INVTX1_4_\.out
*393 mux_right_ipin_0\.INVTX1_5_\.out
*394 mux_right_ipin_0\.INVTX1_6_\.out
*395 mux_right_ipin_0\.INVTX1_7_\.out
*396 mux_right_ipin_0\.mux_2level_tapbuf_basis_input3_mem3_0_out
*397 mux_right_ipin_0\.mux_2level_tapbuf_basis_input3_mem3_1_out
*398 mux_right_ipin_0\.mux_2level_tapbuf_basis_input3_mem3_2_out
*399 mux_right_ipin_0\.mux_2level_tapbuf_basis_input3_mem3_3_out
*400 mux_right_ipin_1\.INVTX1_2_\.out
*401 mux_right_ipin_1\.INVTX1_3_\.out
*402 mux_right_ipin_1\.INVTX1_4_\.out
*403 mux_right_ipin_1\.INVTX1_5_\.out
*404 mux_right_ipin_1\.INVTX1_6_\.out
*405 mux_right_ipin_1\.INVTX1_7_\.out
*406 mux_right_ipin_1\.mux_2level_tapbuf_basis_input3_mem3_0_out
*407 mux_right_ipin_1\.mux_2level_tapbuf_basis_input3_mem3_1_out
*408 mux_right_ipin_1\.mux_2level_tapbuf_basis_input3_mem3_2_out
*409 mux_right_ipin_1\.mux_2level_tapbuf_basis_input3_mem3_3_out
*410 mux_right_ipin_2\.INVTX1_2_\.out
*411 mux_right_ipin_2\.INVTX1_3_\.out
*412 mux_right_ipin_2\.INVTX1_6_\.out
*413 mux_right_ipin_2\.INVTX1_7_\.out
*414 mux_right_ipin_2\.mux_2level_tapbuf_basis_input3_mem3_0_out
*415 mux_right_ipin_2\.mux_2level_tapbuf_basis_input3_mem3_1_out
*416 mux_right_ipin_2\.mux_2level_tapbuf_basis_input3_mem3_2_out
*417 mux_right_ipin_2\.mux_2level_tapbuf_basis_input3_mem3_3_out
*418 mux_right_ipin_3\.mux_2level_tapbuf_basis_input3_mem3_0_out
*419 mux_right_ipin_3\.mux_2level_tapbuf_basis_input3_mem3_1_out
*420 mux_right_ipin_3\.mux_2level_tapbuf_basis_input3_mem3_2_out
*421 mux_right_ipin_3\.mux_2level_tapbuf_basis_input3_mem3_3_out
*422 mux_right_ipin_4\.mux_2level_tapbuf_basis_input3_mem3_0_out
*423 mux_right_ipin_4\.mux_2level_tapbuf_basis_input3_mem3_1_out
*424 mux_right_ipin_4\.mux_2level_tapbuf_basis_input3_mem3_2_out
*425 mux_right_ipin_4\.mux_2level_tapbuf_basis_input3_mem3_3_out
*426 mux_right_ipin_5\.INVTX1_4_\.out
*427 mux_right_ipin_5\.INVTX1_5_\.out
*428 mux_right_ipin_5\.INVTX1_6_\.out
*429 mux_right_ipin_5\.INVTX1_7_\.out
*430 mux_right_ipin_5\.mux_2level_tapbuf_basis_input3_mem3_0_out
*431 mux_right_ipin_5\.mux_2level_tapbuf_basis_input3_mem3_1_out
*432 mux_right_ipin_5\.mux_2level_tapbuf_basis_input3_mem3_2_out
*433 mux_right_ipin_5\.mux_2level_tapbuf_basis_input3_mem3_3_out
*434 mux_right_ipin_6\.mux_2level_tapbuf_basis_input3_mem3_0_out
*435 mux_right_ipin_6\.mux_2level_tapbuf_basis_input3_mem3_1_out
*436 mux_right_ipin_6\.mux_2level_tapbuf_basis_input3_mem3_2_out
*437 mux_right_ipin_6\.mux_2level_tapbuf_basis_input3_mem3_3_out
*438 mux_right_ipin_7\.mux_2level_tapbuf_basis_input3_mem3_0_out
*439 mux_right_ipin_7\.mux_2level_tapbuf_basis_input3_mem3_1_out
*440 mux_right_ipin_7\.mux_2level_tapbuf_basis_input3_mem3_2_out
*441 mux_right_ipin_7\.mux_2level_tapbuf_basis_input3_mem3_3_out
*442 net1
*443 net10
*444 net100
*445 net101
*446 net11
*447 net12
*448 net13
*449 net14
*450 net15
*451 net16
*452 net17
*453 net18
*454 net19
*455 net2
*456 net20
*457 net21
*458 net22
*459 net23
*460 net24
*461 net25
*462 net26
*463 net27
*464 net28
*465 net29
*466 net3
*467 net30
*468 net31
*469 net32
*470 net33
*471 net34
*472 net35
*473 net36
*474 net37
*475 net38
*476 net39
*477 net4
*478 net40
*479 net41
*480 net42
*481 net43
*482 net44
*483 net45
*484 net46
*485 net47
*486 net48
*487 net49
*488 net5
*489 net50
*490 net51
*491 net52
*492 net53
*493 net54
*494 net55
*495 net56
*496 net57
*497 net58
*498 net59
*499 net6
*500 net60
*501 net61
*502 net62
*503 net63
*504 net64
*505 net65
*506 net66
*507 net67
*508 net68
*509 net69
*510 net7
*511 net70
*512 net71
*513 net72
*514 net73
*515 net74
*516 net75
*517 net76
*518 net77
*519 net78
*520 net79
*521 net8
*522 net80
*523 net81
*524 net82
*525 net83
*526 net84
*527 net85
*528 net86
*529 net87
*530 net88
*531 net89
*532 net9
*533 net90
*534 net91
*535 net92
*536 net93
*537 net94
*538 net95
*539 net96
*540 net97
*541 net98
*542 net99
*543 ANTENNA__226__A
*544 ANTENNA__235__A
*545 ANTENNA__239__A
*546 ANTENNA__243__A
*547 ANTENNA__247__A
*548 ANTENNA__248__A
*549 ANTENNA__251__A
*550 ANTENNA__252__A
*551 ANTENNA__255__A
*552 ANTENNA__256__A
*553 ANTENNA__259__A
*554 ANTENNA__260__A
*555 ANTENNA__263__A
*556 ANTENNA__264__A
*557 ANTENNA__267__A
*558 ANTENNA__268__A
*559 ANTENNA__271__A
*560 ANTENNA__272__A
*561 ANTENNA__275__A
*562 ANTENNA__276__A
*563 ANTENNA__279__A
*564 ANTENNA__280__A
*565 ANTENNA__283__A
*566 ANTENNA__284__A
*567 ANTENNA__285__A
*568 ANTENNA__287__A
*569 ANTENNA__288__A
*570 ANTENNA__289__A
*571 ANTENNA__291__A
*572 ANTENNA__292__A
*573 ANTENNA__293__A
*574 ANTENNA__295__A
*575 ANTENNA__296__A
*576 ANTENNA__298__A
*577 ANTENNA__299__A
*578 ANTENNA__300__A
*579 ANTENNA__302__A
*580 ANTENNA__303__A
*581 ANTENNA__304__A
*582 ANTENNA__308__A
*583 ANTENNA__312__A
*584 ANTENNA__316__A
*585 ANTENNA__319__A
*586 ANTENNA__323__A
*587 ANTENNA__327__A
*588 ANTENNA__331__A
*589 ANTENNA__333__A
*590 ANTENNA__334__A
*591 ANTENNA__335__A
*592 ANTENNA__336__A
*593 ANTENNA__338__A
*594 ANTENNA__340__A
*595 ANTENNA__342__A
*596 ANTENNA__343__A
*597 ANTENNA__344__A
*598 ANTENNA__346__A
*599 ANTENNA__347__A
*600 ANTENNA__348__A
*601 ANTENNA__349__A
*602 ANTENNA__350__A
*603 ANTENNA__352__A
*604 ANTENNA__354__A
*605 ANTENNA__355__A
*606 ANTENNA__356__A
*607 ANTENNA__357__A
*608 ANTENNA__359__A
*609 ANTENNA__361__A
*610 ANTENNA__364__A
*611 ANTENNA__366__A
*612 ANTENNA__367__A
*613 ANTENNA__368__A
*614 ANTENNA__369__A
*615 ANTENNA__370__A
*616 ANTENNA__371__A
*617 ANTENNA__374__A
*618 ANTENNA__375__A
*619 ANTENNA__382__A
*620 ANTENNA__384__A
*621 ANTENNA__385__A
*622 ANTENNA__388__A
*623 ANTENNA__389__A
*624 ANTENNA__390__A
*625 ANTENNA__391__A
*626 ANTENNA__393__A
*627 ANTENNA__394__A
*628 ANTENNA__395__A
*629 ANTENNA__396__A
*630 ANTENNA__397__A
*631 ANTENNA__398__A
*632 ANTENNA__399__A
*633 ANTENNA__400__A
*634 ANTENNA__401__A
*635 ANTENNA__402__A
*636 ANTENNA__404__A
*637 ANTENNA__405__A
*638 ANTENNA__406__A
*639 ANTENNA__407__A
*640 ANTENNA__408__A
*641 ANTENNA__409__A
*642 ANTENNA__410__A
*643 ANTENNA__411__A
*644 ANTENNA__412__A
*645 ANTENNA__413__A
*646 ANTENNA__415__A
*647 ANTENNA__416__A
*648 ANTENNA__417__A
*649 ANTENNA__418__A
*650 ANTENNA__419__A
*651 ANTENNA__420__A
*652 ANTENNA__421__A
*653 ANTENNA__422__A
*654 ANTENNA__423__A
*655 ANTENNA__424__A
*656 ANTENNA__426__A
*657 ANTENNA__427__A
*658 ANTENNA__428__A
*659 ANTENNA__429__A
*660 ANTENNA__430__A
*661 ANTENNA__431__A
*662 ANTENNA__432__A
*663 ANTENNA__433__A
*664 ANTENNA__434__A
*665 ANTENNA__435__A
*666 ANTENNA__436__A
*667 ANTENNA__447__A
*668 ANTENNA__464__CLK
*669 ANTENNA__465__CLK
*670 ANTENNA__466__CLK
*671 ANTENNA__467__CLK
*672 ANTENNA__467__D
*673 ANTENNA__468__CLK
*674 ANTENNA__468__D
*675 ANTENNA__469__CLK
*676 ANTENNA__469__D
*677 ANTENNA__470__CLK
*678 ANTENNA__471__CLK
*679 ANTENNA__472__CLK
*680 ANTENNA__473__CLK
*681 ANTENNA__474__CLK
*682 ANTENNA__474__D
*683 ANTENNA__475__CLK
*684 ANTENNA__475__D
*685 ANTENNA__476__CLK
*686 ANTENNA__477__CLK
*687 ANTENNA__478__CLK
*688 ANTENNA__478__D
*689 ANTENNA__479__CLK
*690 ANTENNA__480__CLK
*691 ANTENNA__481__CLK
*692 ANTENNA__482__CLK
*693 ANTENNA__482__D
*694 ANTENNA__483__CLK
*695 ANTENNA__484__CLK
*696 ANTENNA__484__D
*697 ANTENNA__485__CLK
*698 ANTENNA__486__CLK
*699 ANTENNA__486__D
*700 ANTENNA__487__CLK
*701 ANTENNA__488__CLK
*702 ANTENNA__489__CLK
*703 ANTENNA__490__CLK
*704 ANTENNA__490__D
*705 ANTENNA__491__CLK
*706 ANTENNA__491__D
*707 ANTENNA__492__CLK
*708 ANTENNA__492__D
*709 ANTENNA__493__CLK
*710 ANTENNA__493__D
*711 ANTENNA__494__CLK
*712 ANTENNA__495__CLK
*713 ANTENNA__496__CLK
*714 ANTENNA__496__D
*715 ANTENNA__497__CLK
*716 ANTENNA__498__CLK
*717 ANTENNA__498__D
*718 ANTENNA__499__CLK
*719 ANTENNA__500__CLK
*720 ANTENNA__501__CLK
*721 ANTENNA__502__CLK
*722 ANTENNA__502__D
*723 ANTENNA__503__CLK
*724 ANTENNA__504__CLK
*725 ANTENNA__504__D
*726 ANTENNA__505__CLK
*727 ANTENNA__506__CLK
*728 ANTENNA__507__CLK
*729 ANTENNA__508__CLK
*730 ANTENNA__508__D
*731 ANTENNA__509__CLK
*732 ANTENNA__510__CLK
*733 ANTENNA__510__D
*734 ANTENNA__511__CLK
*735 ANTENNA__512__CLK
*736 ANTENNA__513__CLK
*737 ANTENNA__514__CLK
*738 ANTENNA__515__CLK
*739 ANTENNA__516__CLK
*740 ANTENNA__516__D
*741 ANTENNA__517__CLK
*742 ANTENNA__518__CLK
*743 ANTENNA__519__CLK
*744 ANTENNA__520__CLK
*745 ANTENNA__521__CLK
*746 ANTENNA__522__CLK
*747 ANTENNA__523__CLK
*748 ANTENNA__524__CLK
*749 ANTENNA__525__CLK
*750 ANTENNA__526__CLK
*751 ANTENNA__527__CLK
*752 ANTENNA__528__CLK
*753 ANTENNA__529__CLK
*754 ANTENNA__542__A
*755 ANTENNA__543__A
*756 ANTENNA__544__A
*757 ANTENNA__545__A
*758 ANTENNA__546__A
*759 ANTENNA__547__A
*760 ANTENNA__548__A
*761 ANTENNA__550__A
*762 ANTENNA__551__A
*763 ANTENNA__552__A
*764 ANTENNA__555__A
*765 ANTENNA__556__A
*766 ANTENNA__558__A
*767 ANTENNA__559__A
*768 ANTENNA__560__A
*769 ANTENNA__561__A
*770 ANTENNA__565__A
*771 ANTENNA__566__A
*772 ANTENNA__567__A
*773 ANTENNA__569__A
*774 ANTENNA__570__A
*775 ANTENNA__571__A
*776 ANTENNA__572__A
*777 ANTENNA__574__A
*778 ANTENNA__575__A
*779 ANTENNA__577__A
*780 ANTENNA__578__A
*781 ANTENNA__635__A
*782 ANTENNA__663__A
*783 ANTENNA__664__A
*784 ANTENNA_input10_A
*785 ANTENNA_input11_A
*786 ANTENNA_input12_A
*787 ANTENNA_input13_A
*788 ANTENNA_input14_A
*789 ANTENNA_input15_A
*790 ANTENNA_input16_A
*791 ANTENNA_input17_A
*792 ANTENNA_input18_A
*793 ANTENNA_input19_A
*794 ANTENNA_input1_A
*795 ANTENNA_input20_A
*796 ANTENNA_input21_A
*797 ANTENNA_input22_A
*798 ANTENNA_input23_A
*799 ANTENNA_input24_A
*800 ANTENNA_input25_A
*801 ANTENNA_input26_A
*802 ANTENNA_input27_A
*803 ANTENNA_input28_A
*804 ANTENNA_input29_A
*805 ANTENNA_input2_A
*806 ANTENNA_input30_A
*807 ANTENNA_input31_A
*808 ANTENNA_input32_A
*809 ANTENNA_input33_A
*810 ANTENNA_input34_A
*811 ANTENNA_input35_A
*812 ANTENNA_input36_A
*813 ANTENNA_input37_A
*814 ANTENNA_input38_A
*815 ANTENNA_input39_A
*816 ANTENNA_input3_A
*817 ANTENNA_input40_A
*818 ANTENNA_input4_A
*819 ANTENNA_input5_A
*820 ANTENNA_input6_A
*821 ANTENNA_input7_A
*822 ANTENNA_input8_A
*823 ANTENNA_input9_A
*824 ANTENNA_output41_A
*825 ANTENNA_output43_A
*826 ANTENNA_output52_A
*827 ANTENNA_output54_A
*828 ANTENNA_output55_A
*829 ANTENNA_output56_A
*830 ANTENNA_output57_A
*831 ANTENNA_output62_A
*832 ANTENNA_output67_A
*833 ANTENNA_output72_A
*834 ANTENNA_output76_A
*835 ANTENNA_output78_A
*836 ANTENNA_output79_A
*837 FILLER_0_104
*838 FILLER_0_110
*839 FILLER_0_113
*840 FILLER_0_119
*841 FILLER_0_125
*842 FILLER_0_131
*843 FILLER_0_138
*844 FILLER_0_141
*845 FILLER_0_147
*846 FILLER_0_156
*847 FILLER_0_162
*848 FILLER_0_166
*849 FILLER_0_169
*850 FILLER_0_17
*851 FILLER_0_175
*852 FILLER_0_186
*853 FILLER_0_194
*854 FILLER_0_197
*855 FILLER_0_201
*856 FILLER_0_222
*857 FILLER_0_225
*858 FILLER_0_23
*859 FILLER_0_247
*860 FILLER_0_251
*861 FILLER_0_253
*862 FILLER_0_26
*863 FILLER_0_277
*864 FILLER_0_281
*865 FILLER_0_29
*866 FILLER_0_3
*867 FILLER_0_303
*868 FILLER_0_307
*869 FILLER_0_309
*870 FILLER_0_331
*871 FILLER_0_335
*872 FILLER_0_337
*873 FILLER_0_359
*874 FILLER_0_363
*875 FILLER_0_365
*876 FILLER_0_371
*877 FILLER_0_379
*878 FILLER_0_385
*879 FILLER_0_390
*880 FILLER_0_393
*881 FILLER_0_399
*882 FILLER_0_405
*883 FILLER_0_41
*884 FILLER_0_49
*885 FILLER_0_55
*886 FILLER_0_57
*887 FILLER_0_63
*888 FILLER_0_75
*889 FILLER_0_79
*890 FILLER_0_82
*891 FILLER_0_85
*892 FILLER_0_9
*893 FILLER_0_91
*894 FILLER_0_98
*895 FILLER_10_109
*896 FILLER_10_121
*897 FILLER_10_128
*898 FILLER_10_135
*899 FILLER_10_139
*900 FILLER_10_141
*901 FILLER_10_15
*902 FILLER_10_152
*903 FILLER_10_156
*904 FILLER_10_160
*905 FILLER_10_173
*906 FILLER_10_177
*907 FILLER_10_187
*908 FILLER_10_194
*909 FILLER_10_197
*910 FILLER_10_208
*911 FILLER_10_215
*912 FILLER_10_221
*913 FILLER_10_243
*914 FILLER_10_250
*915 FILLER_10_253
*916 FILLER_10_27
*917 FILLER_10_279
*918 FILLER_10_29
*919 FILLER_10_3
*920 FILLER_10_306
*921 FILLER_10_309
*922 FILLER_10_331
*923 FILLER_10_337
*924 FILLER_10_343
*925 FILLER_10_349
*926 FILLER_10_355
*927 FILLER_10_363
*928 FILLER_10_365
*929 FILLER_10_374
*930 FILLER_10_380
*931 FILLER_10_388
*932 FILLER_10_395
*933 FILLER_10_402
*934 FILLER_10_406
*935 FILLER_10_41
*936 FILLER_10_53
*937 FILLER_10_65
*938 FILLER_10_77
*939 FILLER_10_83
*940 FILLER_10_85
*941 FILLER_10_97
*942 FILLER_11_105
*943 FILLER_11_111
*944 FILLER_11_113
*945 FILLER_11_125
*946 FILLER_11_131
*947 FILLER_11_134
*948 FILLER_11_140
*949 FILLER_11_146
*950 FILLER_11_152
*951 FILLER_11_159
*952 FILLER_11_166
*953 FILLER_11_169
*954 FILLER_11_173
*955 FILLER_11_177
*956 FILLER_11_19
*957 FILLER_11_190
*958 FILLER_11_194
*959 FILLER_11_204
*960 FILLER_11_211
*961 FILLER_11_221
*962 FILLER_11_225
*963 FILLER_11_248
*964 FILLER_11_273
*965 FILLER_11_279
*966 FILLER_11_281
*967 FILLER_11_286
*968 FILLER_11_3
*969 FILLER_11_31
*970 FILLER_11_313
*971 FILLER_11_320
*972 FILLER_11_326
*973 FILLER_11_332
*974 FILLER_11_337
*975 FILLER_11_341
*976 FILLER_11_347
*977 FILLER_11_353
*978 FILLER_11_359
*979 FILLER_11_371
*980 FILLER_11_379
*981 FILLER_11_384
*982 FILLER_11_390
*983 FILLER_11_393
*984 FILLER_11_405
*985 FILLER_11_43
*986 FILLER_11_55
*987 FILLER_11_57
*988 FILLER_11_69
*989 FILLER_11_7
*990 FILLER_11_81
*991 FILLER_11_93
*992 FILLER_12_109
*993 FILLER_12_121
*994 FILLER_12_125
*995 FILLER_12_129
*996 FILLER_12_135
*997 FILLER_12_138
*998 FILLER_12_141
*999 FILLER_12_147
*1000 FILLER_12_15
*1001 FILLER_12_151
*1002 FILLER_12_164
*1003 FILLER_12_177
*1004 FILLER_12_194
*1005 FILLER_12_197
*1006 FILLER_12_208
*1007 FILLER_12_215
*1008 FILLER_12_240
*1009 FILLER_12_247
*1010 FILLER_12_251
*1011 FILLER_12_253
*1012 FILLER_12_27
*1013 FILLER_12_276
*1014 FILLER_12_29
*1015 FILLER_12_3
*1016 FILLER_12_301
*1017 FILLER_12_307
*1018 FILLER_12_309
*1019 FILLER_12_332
*1020 FILLER_12_338
*1021 FILLER_12_344
*1022 FILLER_12_350
*1023 FILLER_12_356
*1024 FILLER_12_365
*1025 FILLER_12_377
*1026 FILLER_12_381
*1027 FILLER_12_387
*1028 FILLER_12_393
*1029 FILLER_12_397
*1030 FILLER_12_403
*1031 FILLER_12_41
*1032 FILLER_12_53
*1033 FILLER_12_65
*1034 FILLER_12_77
*1035 FILLER_12_83
*1036 FILLER_12_85
*1037 FILLER_12_97
*1038 FILLER_13_103
*1039 FILLER_13_111
*1040 FILLER_13_113
*1041 FILLER_13_121
*1042 FILLER_13_126
*1043 FILLER_13_132
*1044 FILLER_13_139
*1045 FILLER_13_146
*1046 FILLER_13_15
*1047 FILLER_13_153
*1048 FILLER_13_166
*1049 FILLER_13_169
*1050 FILLER_13_181
*1051 FILLER_13_194
*1052 FILLER_13_222
*1053 FILLER_13_225
*1054 FILLER_13_230
*1055 FILLER_13_243
*1056 FILLER_13_27
*1057 FILLER_13_270
*1058 FILLER_13_277
*1059 FILLER_13_281
*1060 FILLER_13_286
*1061 FILLER_13_290
*1062 FILLER_13_3
*1063 FILLER_13_314
*1064 FILLER_13_320
*1065 FILLER_13_326
*1066 FILLER_13_332
*1067 FILLER_13_337
*1068 FILLER_13_342
*1069 FILLER_13_349
*1070 FILLER_13_355
*1071 FILLER_13_361
*1072 FILLER_13_373
*1073 FILLER_13_385
*1074 FILLER_13_39
*1075 FILLER_13_391
*1076 FILLER_13_393
*1077 FILLER_13_397
*1078 FILLER_13_405
*1079 FILLER_13_51
*1080 FILLER_13_55
*1081 FILLER_13_57
*1082 FILLER_13_69
*1083 FILLER_13_81
*1084 FILLER_13_85
*1085 FILLER_13_91
*1086 FILLER_14_105
*1087 FILLER_14_109
*1088 FILLER_14_121
*1089 FILLER_14_129
*1090 FILLER_14_132
*1091 FILLER_14_138
*1092 FILLER_14_141
*1093 FILLER_14_150
*1094 FILLER_14_157
*1095 FILLER_14_164
*1096 FILLER_14_177
*1097 FILLER_14_19
*1098 FILLER_14_190
*1099 FILLER_14_197
*1100 FILLER_14_208
*1101 FILLER_14_212
*1102 FILLER_14_216
*1103 FILLER_14_243
*1104 FILLER_14_250
*1105 FILLER_14_253
*1106 FILLER_14_258
*1107 FILLER_14_262
*1108 FILLER_14_27
*1109 FILLER_14_284
*1110 FILLER_14_29
*1111 FILLER_14_297
*1112 FILLER_14_3
*1113 FILLER_14_304
*1114 FILLER_14_309
*1115 FILLER_14_332
*1116 FILLER_14_338
*1117 FILLER_14_344
*1118 FILLER_14_350
*1119 FILLER_14_356
*1120 FILLER_14_365
*1121 FILLER_14_369
*1122 FILLER_14_373
*1123 FILLER_14_379
*1124 FILLER_14_391
*1125 FILLER_14_403
*1126 FILLER_14_41
*1127 FILLER_14_53
*1128 FILLER_14_65
*1129 FILLER_14_7
*1130 FILLER_14_77
*1131 FILLER_14_83
*1132 FILLER_14_85
*1133 FILLER_14_97
*1134 FILLER_15_109
*1135 FILLER_15_113
*1136 FILLER_15_123
*1137 FILLER_15_129
*1138 FILLER_15_135
*1139 FILLER_15_142
*1140 FILLER_15_154
*1141 FILLER_15_166
*1142 FILLER_15_169
*1143 FILLER_15_173
*1144 FILLER_15_180
*1145 FILLER_15_187
*1146 FILLER_15_200
*1147 FILLER_15_21
*1148 FILLER_15_213
*1149 FILLER_15_217
*1150 FILLER_15_221
*1151 FILLER_15_225
*1152 FILLER_15_248
*1153 FILLER_15_256
*1154 FILLER_15_277
*1155 FILLER_15_281
*1156 FILLER_15_286
*1157 FILLER_15_3
*1158 FILLER_15_315
*1159 FILLER_15_322
*1160 FILLER_15_328
*1161 FILLER_15_33
*1162 FILLER_15_334
*1163 FILLER_15_337
*1164 FILLER_15_341
*1165 FILLER_15_347
*1166 FILLER_15_353
*1167 FILLER_15_365
*1168 FILLER_15_377
*1169 FILLER_15_389
*1170 FILLER_15_393
*1171 FILLER_15_398
*1172 FILLER_15_405
*1173 FILLER_15_45
*1174 FILLER_15_53
*1175 FILLER_15_57
*1176 FILLER_15_69
*1177 FILLER_15_81
*1178 FILLER_15_87
*1179 FILLER_15_9
*1180 FILLER_15_91
*1181 FILLER_15_97
*1182 FILLER_16_109
*1183 FILLER_16_117
*1184 FILLER_16_122
*1185 FILLER_16_129
*1186 FILLER_16_138
*1187 FILLER_16_141
*1188 FILLER_16_146
*1189 FILLER_16_15
*1190 FILLER_16_153
*1191 FILLER_16_165
*1192 FILLER_16_178
*1193 FILLER_16_187
*1194 FILLER_16_194
*1195 FILLER_16_197
*1196 FILLER_16_210
*1197 FILLER_16_223
*1198 FILLER_16_248
*1199 FILLER_16_253
*1200 FILLER_16_264
*1201 FILLER_16_27
*1202 FILLER_16_29
*1203 FILLER_16_291
*1204 FILLER_16_3
*1205 FILLER_16_304
*1206 FILLER_16_309
*1207 FILLER_16_314
*1208 FILLER_16_321
*1209 FILLER_16_327
*1210 FILLER_16_333
*1211 FILLER_16_339
*1212 FILLER_16_347
*1213 FILLER_16_352
*1214 FILLER_16_365
*1215 FILLER_16_377
*1216 FILLER_16_389
*1217 FILLER_16_401
*1218 FILLER_16_41
*1219 FILLER_16_53
*1220 FILLER_16_65
*1221 FILLER_16_77
*1222 FILLER_16_83
*1223 FILLER_16_85
*1224 FILLER_16_97
*1225 FILLER_17_105
*1226 FILLER_17_111
*1227 FILLER_17_113
*1228 FILLER_17_119
*1229 FILLER_17_125
*1230 FILLER_17_132
*1231 FILLER_17_139
*1232 FILLER_17_146
*1233 FILLER_17_15
*1234 FILLER_17_153
*1235 FILLER_17_166
*1236 FILLER_17_169
*1237 FILLER_17_175
*1238 FILLER_17_188
*1239 FILLER_17_205
*1240 FILLER_17_222
*1241 FILLER_17_225
*1242 FILLER_17_247
*1243 FILLER_17_254
*1244 FILLER_17_27
*1245 FILLER_17_278
*1246 FILLER_17_281
*1247 FILLER_17_292
*1248 FILLER_17_3
*1249 FILLER_17_305
*1250 FILLER_17_312
*1251 FILLER_17_319
*1252 FILLER_17_326
*1253 FILLER_17_333
*1254 FILLER_17_337
*1255 FILLER_17_341
*1256 FILLER_17_353
*1257 FILLER_17_365
*1258 FILLER_17_377
*1259 FILLER_17_389
*1260 FILLER_17_39
*1261 FILLER_17_393
*1262 FILLER_17_397
*1263 FILLER_17_405
*1264 FILLER_17_51
*1265 FILLER_17_55
*1266 FILLER_17_57
*1267 FILLER_17_69
*1268 FILLER_17_81
*1269 FILLER_17_93
*1270 FILLER_18_109
*1271 FILLER_18_121
*1272 FILLER_18_125
*1273 FILLER_18_131
*1274 FILLER_18_138
*1275 FILLER_18_141
*1276 FILLER_18_15
*1277 FILLER_18_150
*1278 FILLER_18_163
*1279 FILLER_18_176
*1280 FILLER_18_184
*1281 FILLER_18_194
*1282 FILLER_18_197
*1283 FILLER_18_212
*1284 FILLER_18_225
*1285 FILLER_18_238
*1286 FILLER_18_245
*1287 FILLER_18_251
*1288 FILLER_18_253
*1289 FILLER_18_264
*1290 FILLER_18_27
*1291 FILLER_18_277
*1292 FILLER_18_29
*1293 FILLER_18_290
*1294 FILLER_18_3
*1295 FILLER_18_303
*1296 FILLER_18_307
*1297 FILLER_18_309
*1298 FILLER_18_314
*1299 FILLER_18_321
*1300 FILLER_18_328
*1301 FILLER_18_334
*1302 FILLER_18_340
*1303 FILLER_18_352
*1304 FILLER_18_365
*1305 FILLER_18_377
*1306 FILLER_18_389
*1307 FILLER_18_401
*1308 FILLER_18_41
*1309 FILLER_18_53
*1310 FILLER_18_65
*1311 FILLER_18_77
*1312 FILLER_18_83
*1313 FILLER_18_85
*1314 FILLER_18_97
*1315 FILLER_19_105
*1316 FILLER_19_111
*1317 FILLER_19_113
*1318 FILLER_19_118
*1319 FILLER_19_124
*1320 FILLER_19_131
*1321 FILLER_19_138
*1322 FILLER_19_145
*1323 FILLER_19_152
*1324 FILLER_19_159
*1325 FILLER_19_166
*1326 FILLER_19_169
*1327 FILLER_19_174
*1328 FILLER_19_187
*1329 FILLER_19_200
*1330 FILLER_19_21
*1331 FILLER_19_212
*1332 FILLER_19_219
*1333 FILLER_19_223
*1334 FILLER_19_225
*1335 FILLER_19_236
*1336 FILLER_19_249
*1337 FILLER_19_262
*1338 FILLER_19_275
*1339 FILLER_19_279
*1340 FILLER_19_281
*1341 FILLER_19_292
*1342 FILLER_19_3
*1343 FILLER_19_305
*1344 FILLER_19_312
*1345 FILLER_19_319
*1346 FILLER_19_326
*1347 FILLER_19_33
*1348 FILLER_19_332
*1349 FILLER_19_337
*1350 FILLER_19_352
*1351 FILLER_19_364
*1352 FILLER_19_376
*1353 FILLER_19_388
*1354 FILLER_19_393
*1355 FILLER_19_405
*1356 FILLER_19_45
*1357 FILLER_19_53
*1358 FILLER_19_57
*1359 FILLER_19_69
*1360 FILLER_19_81
*1361 FILLER_19_9
*1362 FILLER_19_93
*1363 FILLER_1_104
*1364 FILLER_1_110
*1365 FILLER_1_113
*1366 FILLER_1_119
*1367 FILLER_1_122
*1368 FILLER_1_128
*1369 FILLER_1_134
*1370 FILLER_1_140
*1371 FILLER_1_15
*1372 FILLER_1_150
*1373 FILLER_1_160
*1374 FILLER_1_166
*1375 FILLER_1_169
*1376 FILLER_1_182
*1377 FILLER_1_186
*1378 FILLER_1_190
*1379 FILLER_1_197
*1380 FILLER_1_201
*1381 FILLER_1_222
*1382 FILLER_1_225
*1383 FILLER_1_250
*1384 FILLER_1_254
*1385 FILLER_1_27
*1386 FILLER_1_278
*1387 FILLER_1_281
*1388 FILLER_1_3
*1389 FILLER_1_306
*1390 FILLER_1_333
*1391 FILLER_1_337
*1392 FILLER_1_359
*1393 FILLER_1_367
*1394 FILLER_1_373
*1395 FILLER_1_379
*1396 FILLER_1_390
*1397 FILLER_1_393
*1398 FILLER_1_397
*1399 FILLER_1_405
*1400 FILLER_1_42
*1401 FILLER_1_54
*1402 FILLER_1_57
*1403 FILLER_1_69
*1404 FILLER_1_80
*1405 FILLER_1_9
*1406 FILLER_1_92
*1407 FILLER_20_101
*1408 FILLER_20_105
*1409 FILLER_20_117
*1410 FILLER_20_120
*1411 FILLER_20_126
*1412 FILLER_20_132
*1413 FILLER_20_138
*1414 FILLER_20_141