*SPEF "ieee 1481-1999"
*DESIGN "grid_io_top"
*DATE "11:11:11 Fri 11 11, 1111"
*VENDOR "OpenRCX"
*PROGRAM "Parallel Extraction"
*VERSION "1.0"
*DESIGN_FLOW "NAME_SCOPE LOCAL" "PIN_CAP NONE"
*DIVIDER /
*DELIMITER :
*BUS_DELIMITER []
*T_UNIT 1 NS
*C_UNIT 1 PF
*R_UNIT 1 OHM
*L_UNIT 1 HENRY

*NAME_MAP
*1 bottom_width_0_height_0_subtile_0__pin_inpad_0_
*2 bottom_width_0_height_0_subtile_0__pin_outpad_0_
*3 bottom_width_0_height_0_subtile_1__pin_inpad_0_
*4 bottom_width_0_height_0_subtile_1__pin_outpad_0_
*5 bottom_width_0_height_0_subtile_2__pin_inpad_0_
*6 bottom_width_0_height_0_subtile_2__pin_outpad_0_
*7 bottom_width_0_height_0_subtile_3__pin_inpad_0_
*8 bottom_width_0_height_0_subtile_3__pin_outpad_0_
*9 bottom_width_0_height_0_subtile_4__pin_inpad_0_
*10 bottom_width_0_height_0_subtile_4__pin_outpad_0_
*11 bottom_width_0_height_0_subtile_5__pin_inpad_0_
*12 bottom_width_0_height_0_subtile_5__pin_outpad_0_
*13 bottom_width_0_height_0_subtile_6__pin_inpad_0_
*14 bottom_width_0_height_0_subtile_6__pin_outpad_0_
*15 bottom_width_0_height_0_subtile_7__pin_inpad_0_
*16 bottom_width_0_height_0_subtile_7__pin_outpad_0_
*17 ccff_head
*18 ccff_tail
*19 gfpga_pad_GPIO_PAD[0]
*20 gfpga_pad_GPIO_PAD[1]
*21 gfpga_pad_GPIO_PAD[2]
*22 gfpga_pad_GPIO_PAD[3]
*23 gfpga_pad_GPIO_PAD[4]
*24 gfpga_pad_GPIO_PAD[5]
*25 gfpga_pad_GPIO_PAD[6]
*26 gfpga_pad_GPIO_PAD[7]
*27 pReset
*28 prog_clk
*31 _00_
*32 _01_
*33 _02_
*34 _03_
*35 _04_
*36 _05_
*37 _06_
*38 _07_
*39 _08_
*40 _09_
*41 _10_
*42 _11_
*43 _12_
*44 _13_
*45 _14_
*46 _15_
*47 _16_
*48 _17_
*49 _18_
*50 _19_
*51 _20_
*52 _21_
*53 _22_
*54 _23_
*55 _24_
*56 _25_
*57 _26_
*58 _27_
*59 _28_
*60 _29_
*61 _30_
*62 _31_
*63 logical_tile_io_mode_io__0\.ccff_tail
*64 logical_tile_io_mode_io__1\.ccff_tail
*65 logical_tile_io_mode_io__2\.ccff_tail
*66 logical_tile_io_mode_io__3\.ccff_tail
*67 logical_tile_io_mode_io__4\.ccff_tail
*68 logical_tile_io_mode_io__5\.ccff_tail
*69 logical_tile_io_mode_io__6\.ccff_tail
*70 net1
*71 net10
*72 net11
*73 net2
*74 net3
*75 net4
*76 net5
*77 net6
*78 net7
*79 net8
*80 net9
*81 ANTENNA__56__A
*82 ANTENNA__57__A
*83 ANTENNA__58__A
*84 ANTENNA__59__A
*85 ANTENNA__60__A
*86 ANTENNA__61__A
*87 ANTENNA__62__A
*88 ANTENNA__63__A
*89 ANTENNA__64__CLK
*90 ANTENNA__64__D
*91 ANTENNA__65__CLK
*92 ANTENNA__66__CLK
*93 ANTENNA__67__CLK
*94 ANTENNA__68__CLK
*95 ANTENNA__69__CLK
*96 ANTENNA__70__CLK
*97 ANTENNA__71__CLK
*98 ANTENNA__72__A
*99 ANTENNA__73__A
*100 ANTENNA__76__A
*101 ANTENNA__80__A
*102 ANTENNA__82__A
*103 ANTENNA__83__A
*104 ANTENNA__84__A
*105 ANTENNA__85__A
*106 ANTENNA__86__A
*107 ANTENNA__87__A
*108 ANTENNA_input10_A
*109 ANTENNA_input1_A
*110 ANTENNA_input2_A
*111 ANTENNA_input3_A
*112 ANTENNA_input4_A
*113 ANTENNA_input5_A
*114 ANTENNA_input6_A
*115 ANTENNA_input7_A
*116 ANTENNA_input8_A
*117 ANTENNA_input9_A
*118 FILLER_0_109
*119 FILLER_0_113
*120 FILLER_0_119
*121 FILLER_0_131
*122 FILLER_0_139
*123 FILLER_0_14
*124 FILLER_0_141
*125 FILLER_0_153
*126 FILLER_0_165
*127 FILLER_0_169
*128 FILLER_0_181
*129 FILLER_0_193
*130 FILLER_0_197
*131 FILLER_0_209
*132 FILLER_0_221
*133 FILLER_0_225
*134 FILLER_0_237
*135 FILLER_0_249
*136 FILLER_0_253
*137 FILLER_0_26
*138 FILLER_0_265
*139 FILLER_0_277
*140 FILLER_0_281
*141 FILLER_0_29
*142 FILLER_0_293
*143 FILLER_0_3
*144 FILLER_0_305
*145 FILLER_0_309
*146 FILLER_0_321
*147 FILLER_0_333
*148 FILLER_0_337
*149 FILLER_0_349
*150 FILLER_0_361
*151 FILLER_0_365
*152 FILLER_0_377
*153 FILLER_0_389
*154 FILLER_0_393
*155 FILLER_0_397
*156 FILLER_0_405
*157 FILLER_0_41
*158 FILLER_0_48
*159 FILLER_0_54
*160 FILLER_0_57
*161 FILLER_0_69
*162 FILLER_0_8
*163 FILLER_0_81
*164 FILLER_0_85
*165 FILLER_0_97
*166 FILLER_10_109
*167 FILLER_10_121
*168 FILLER_10_133
*169 FILLER_10_139
*170 FILLER_10_141
*171 FILLER_10_15
*172 FILLER_10_153
*173 FILLER_10_165
*174 FILLER_10_177
*175 FILLER_10_189
*176 FILLER_10_195
*177 FILLER_10_197
*178 FILLER_10_209
*179 FILLER_10_221
*180 FILLER_10_233
*181 FILLER_10_245
*182 FILLER_10_251
*183 FILLER_10_253
*184 FILLER_10_265
*185 FILLER_10_27
*186 FILLER_10_277
*187 FILLER_10_289
*188 FILLER_10_29
*189 FILLER_10_3
*190 FILLER_10_301
*191 FILLER_10_307
*192 FILLER_10_309
*193 FILLER_10_321
*194 FILLER_10_333
*195 FILLER_10_345
*196 FILLER_10_357
*197 FILLER_10_363
*198 FILLER_10_365
*199 FILLER_10_377
*200 FILLER_10_389
*201 FILLER_10_401
*202 FILLER_10_41
*203 FILLER_10_53
*204 FILLER_10_65
*205 FILLER_10_77
*206 FILLER_10_83
*207 FILLER_10_85
*208 FILLER_10_97
*209 FILLER_11_105
*210 FILLER_11_111
*211 FILLER_11_113
*212 FILLER_11_125
*213 FILLER_11_137
*214 FILLER_11_149
*215 FILLER_11_15
*216 FILLER_11_161
*217 FILLER_11_167
*218 FILLER_11_169
*219 FILLER_11_181
*220 FILLER_11_193
*221 FILLER_11_205
*222 FILLER_11_217
*223 FILLER_11_223
*224 FILLER_11_225
*225 FILLER_11_237
*226 FILLER_11_249
*227 FILLER_11_261
*228 FILLER_11_27
*229 FILLER_11_273
*230 FILLER_11_279
*231 FILLER_11_281
*232 FILLER_11_293
*233 FILLER_11_3
*234 FILLER_11_305
*235 FILLER_11_317
*236 FILLER_11_329
*237 FILLER_11_335
*238 FILLER_11_337
*239 FILLER_11_349
*240 FILLER_11_361
*241 FILLER_11_373
*242 FILLER_11_385
*243 FILLER_11_39
*244 FILLER_11_391
*245 FILLER_11_393
*246 FILLER_11_405
*247 FILLER_11_51
*248 FILLER_11_55
*249 FILLER_11_57
*250 FILLER_11_69
*251 FILLER_11_81
*252 FILLER_11_93
*253 FILLER_12_109
*254 FILLER_12_121
*255 FILLER_12_133
*256 FILLER_12_139
*257 FILLER_12_141
*258 FILLER_12_15
*259 FILLER_12_153
*260 FILLER_12_165
*261 FILLER_12_177
*262 FILLER_12_189
*263 FILLER_12_195
*264 FILLER_12_197
*265 FILLER_12_209
*266 FILLER_12_221
*267 FILLER_12_233
*268 FILLER_12_245
*269 FILLER_12_251
*270 FILLER_12_253
*271 FILLER_12_265
*272 FILLER_12_27
*273 FILLER_12_277
*274 FILLER_12_289
*275 FILLER_12_29
*276 FILLER_12_3
*277 FILLER_12_301
*278 FILLER_12_307
*279 FILLER_12_309
*280 FILLER_12_321
*281 FILLER_12_333
*282 FILLER_12_345
*283 FILLER_12_357
*284 FILLER_12_363
*285 FILLER_12_365
*286 FILLER_12_377
*287 FILLER_12_389
*288 FILLER_12_401
*289 FILLER_12_41
*290 FILLER_12_53
*291 FILLER_12_65
*292 FILLER_12_77
*293 FILLER_12_83
*294 FILLER_12_85
*295 FILLER_12_97
*296 FILLER_13_105
*297 FILLER_13_111
*298 FILLER_13_113
*299 FILLER_13_125
*300 FILLER_13_137
*301 FILLER_13_149
*302 FILLER_13_15
*303 FILLER_13_161
*304 FILLER_13_167
*305 FILLER_13_169
*306 FILLER_13_181
*307 FILLER_13_193
*308 FILLER_13_205
*309 FILLER_13_217
*310 FILLER_13_223
*311 FILLER_13_225
*312 FILLER_13_237
*313 FILLER_13_249
*314 FILLER_13_261
*315 FILLER_13_27
*316 FILLER_13_273
*317 FILLER_13_279
*318 FILLER_13_281
*319 FILLER_13_293
*320 FILLER_13_3
*321 FILLER_13_305
*322 FILLER_13_317
*323 FILLER_13_329
*324 FILLER_13_335
*325 FILLER_13_337
*326 FILLER_13_349
*327 FILLER_13_361
*328 FILLER_13_373
*329 FILLER_13_385
*330 FILLER_13_39
*331 FILLER_13_391
*332 FILLER_13_393
*333 FILLER_13_405
*334 FILLER_13_51
*335 FILLER_13_55
*336 FILLER_13_57
*337 FILLER_13_69
*338 FILLER_13_81
*339 FILLER_13_93
*340 FILLER_14_109
*341 FILLER_14_121
*342 FILLER_14_133
*343 FILLER_14_139
*344 FILLER_14_141
*345 FILLER_14_15
*346 FILLER_14_153
*347 FILLER_14_165
*348 FILLER_14_177
*349 FILLER_14_189
*350 FILLER_14_195
*351 FILLER_14_197
*352 FILLER_14_209
*353 FILLER_14_221
*354 FILLER_14_233
*355 FILLER_14_245
*356 FILLER_14_251
*357 FILLER_14_253
*358 FILLER_14_265
*359 FILLER_14_27
*360 FILLER_14_277
*361 FILLER_14_289
*362 FILLER_14_29
*363 FILLER_14_3
*364 FILLER_14_301
*365 FILLER_14_307
*366 FILLER_14_309
*367 FILLER_14_321
*368 FILLER_14_333
*369 FILLER_14_345
*370 FILLER_14_357
*371 FILLER_14_363
*372 FILLER_14_365
*373 FILLER_14_377
*374 FILLER_14_389
*375 FILLER_14_401
*376 FILLER_14_41
*377 FILLER_14_53
*378 FILLER_14_65
*379 FILLER_14_77
*380 FILLER_14_83
*381 FILLER_14_85
*382 FILLER_14_97
*383 FILLER_15_105
*384 FILLER_15_111
*385 FILLER_15_113
*386 FILLER_15_125
*387 FILLER_15_137
*388 FILLER_15_149
*389 FILLER_15_15
*390 FILLER_15_161
*391 FILLER_15_167
*392 FILLER_15_169
*393 FILLER_15_181
*394 FILLER_15_193
*395 FILLER_15_205
*396 FILLER_15_217
*397 FILLER_15_223
*398 FILLER_15_225
*399 FILLER_15_237
*400 FILLER_15_249
*401 FILLER_15_261
*402 FILLER_15_27
*403 FILLER_15_273
*404 FILLER_15_279
*405 FILLER_15_281
*406 FILLER_15_293
*407 FILLER_15_3
*408 FILLER_15_305
*409 FILLER_15_317
*410 FILLER_15_329
*411 FILLER_15_335
*412 FILLER_15_337
*413 FILLER_15_349
*414 FILLER_15_361
*415 FILLER_15_373
*416 FILLER_15_385
*417 FILLER_15_39
*418 FILLER_15_391
*419 FILLER_15_393
*420 FILLER_15_405
*421 FILLER_15_51
*422 FILLER_15_55
*423 FILLER_15_57
*424 FILLER_15_69
*425 FILLER_15_81
*426 FILLER_15_93
*427 FILLER_16_109
*428 FILLER_16_121
*429 FILLER_16_133
*430 FILLER_16_139
*431 FILLER_16_141
*432 FILLER_16_15
*433 FILLER_16_153
*434 FILLER_16_165
*435 FILLER_16_177
*436 FILLER_16_189
*437 FILLER_16_195
*438 FILLER_16_197
*439 FILLER_16_209
*440 FILLER_16_221
*441 FILLER_16_233
*442 FILLER_16_245
*443 FILLER_16_251
*444 FILLER_16_253
*445 FILLER_16_265
*446 FILLER_16_27
*447 FILLER_16_277
*448 FILLER_16_289
*449 FILLER_16_29
*450 FILLER_16_3
*451 FILLER_16_301
*452 FILLER_16_307
*453 FILLER_16_309
*454 FILLER_16_321
*455 FILLER_16_333
*456 FILLER_16_345
*457 FILLER_16_357
*458 FILLER_16_363
*459 FILLER_16_365
*460 FILLER_16_377
*461 FILLER_16_389
*462 FILLER_16_401
*463 FILLER_16_41
*464 FILLER_16_53
*465 FILLER_16_65
*466 FILLER_16_77
*467 FILLER_16_83
*468 FILLER_16_85
*469 FILLER_16_97
*470 FILLER_17_101
*471 FILLER_17_105
*472 FILLER_17_111
*473 FILLER_17_113
*474 FILLER_17_125
*475 FILLER_17_137
*476 FILLER_17_14
*477 FILLER_17_143
*478 FILLER_17_155
*479 FILLER_17_167
*480 FILLER_17_169
*481 FILLER_17_181
*482 FILLER_17_193
*483 FILLER_17_205
*484 FILLER_17_217
*485 FILLER_17_223
*486 FILLER_17_225
*487 FILLER_17_237
*488 FILLER_17_249
*489 FILLER_17_26
*490 FILLER_17_261
*491 FILLER_17_273
*492 FILLER_17_279
*493 FILLER_17_281
*494 FILLER_17_293
*495 FILLER_17_3
*496 FILLER_17_305
*497 FILLER_17_317
*498 FILLER_17_329
*499 FILLER_17_335
*500 FILLER_17_337
*501 FILLER_17_349
*502 FILLER_17_361
*503 FILLER_17_373
*504 FILLER_17_38
*505 FILLER_17_385
*506 FILLER_17_391
*507 FILLER_17_393
*508 FILLER_17_405
*509 FILLER_17_50
*510 FILLER_17_57
*511 FILLER_17_69
*512 FILLER_17_8
*513 FILLER_17_81
*514 FILLER_17_93
*515 FILLER_18_119
*516 FILLER_18_131
*517 FILLER_18_138
*518 FILLER_18_141
*519 FILLER_18_15
*520 FILLER_18_164
*521 FILLER_18_176
*522 FILLER_18_188
*523 FILLER_18_197
*524 FILLER_18_209
*525 FILLER_18_221
*526 FILLER_18_233
*527 FILLER_18_245
*528 FILLER_18_251
*529 FILLER_18_253
*530 FILLER_18_265
*531 FILLER_18_27
*532 FILLER_18_277
*533 FILLER_18_289
*534 FILLER_18_29
*535 FILLER_18_3
*536 FILLER_18_301
*537 FILLER_18_307
*538 FILLER_18_309
*539 FILLER_18_321
*540 FILLER_18_333
*541 FILLER_18_345
*542 FILLER_18_357
*543 FILLER_18_363
*544 FILLER_18_365
*545 FILLER_18_377
*546 FILLER_18_389
*547 FILLER_18_401
*548 FILLER_18_41
*549 FILLER_18_53
*550 FILLER_18_65
*551 FILLER_18_77
*552 FILLER_18_83
*553 FILLER_18_85
*554 FILLER_18_91
*555 FILLER_18_94
*556 FILLER_19_104
*557 FILLER_19_113
*558 FILLER_19_125
*559 FILLER_19_137
*560 FILLER_19_149
*561 FILLER_19_15
*562 FILLER_19_161
*563 FILLER_19_167
*564 FILLER_19_169
*565 FILLER_19_181
*566 FILLER_19_193
*567 FILLER_19_205
*568 FILLER_19_217
*569 FILLER_19_223
*570 FILLER_19_225
*571 FILLER_19_237
*572 FILLER_19_249
*573 FILLER_19_261
*574 FILLER_19_27
*575 FILLER_19_273
*576 FILLER_19_279
*577 FILLER_19_281
*578 FILLER_19_293
*579 FILLER_19_3
*580 FILLER_19_305
*581 FILLER_19_317
*582 FILLER_19_329
*583 FILLER_19_335
*584 FILLER_19_337
*585 FILLER_19_349
*586 FILLER_19_361
*587 FILLER_19_373
*588 FILLER_19_385
*589 FILLER_19_39
*590 FILLER_19_391
*591 FILLER_19_393
*592 FILLER_19_405
*593 FILLER_19_51
*594 FILLER_19_55
*595 FILLER_19_57
*596 FILLER_19_69
*597 FILLER_19_81
*598 FILLER_19_93
*599 FILLER_1_105
*600 FILLER_1_111
*601 FILLER_1_113
*602 FILLER_1_125
*603 FILLER_1_137
*604 FILLER_1_149
*605 FILLER_1_15
*606 FILLER_1_161
*607 FILLER_1_167
*608 FILLER_1_169
*609 FILLER_1_181
*610 FILLER_1_193
*611 FILLER_1_205
*612 FILLER_1_217
*613 FILLER_1_223
*614 FILLER_1_225
*615 FILLER_1_237
*616 FILLER_1_249
*617 FILLER_1_261
*618 FILLER_1_27
*619 FILLER_1_273
*620 FILLER_1_279
*621 FILLER_1_281
*622 FILLER_1_293
*623 FILLER_1_3
*624 FILLER_1_305
*625 FILLER_1_317
*626 FILLER_1_329
*627 FILLER_1_335
*628 FILLER_1_337
*629 FILLER_1_349
*630 FILLER_1_361
*631 FILLER_1_373
*632 FILLER_1_385
*633 FILLER_1_39
*634 FILLER_1_391
*635 FILLER_1_393
*636 FILLER_1_405
*637 FILLER_1_51
*638 FILLER_1_55
*639 FILLER_1_57
*640 FILLER_1_69
*641 FILLER_1_81
*642 FILLER_1_93
*643 FILLER_20_109
*644 FILLER_20_121
*645 FILLER_20_133
*646 FILLER_20_139
*647 FILLER_20_141
*648 FILLER_20_15
*649 FILLER_20_153
*650 FILLER_20_165
*651 FILLER_20_177
*652 FILLER_20_189
*653 FILLER_20_195
*654 FILLER_20_197
*655 FILLER_20_209
*656 FILLER_20_221
*657 FILLER_20_233
*658 FILLER_20_245
*659 FILLER_20_251
*660 FILLER_20_253
*661 FILLER_20_265
*662 FILLER_20_27
*663 FILLER_20_277
*664 FILLER_20_289
*665 FILLER_20_29
*666 FILLER_20_3
*667 FILLER_20_301
*668 FILLER_20_307
*669 FILLER_20_309
*670 FILLER_20_321
*671 FILLER_20_333
*672 FILLER_20_345
*673 FILLER_20_357
*674 FILLER_20_363
*675 FILLER_20_365
*676 FILLER_20_377
*677 FILLER_20_389
*678 FILLER_20_401
*679 FILLER_20_41
*680 FILLER_20_53
*681 FILLER_20_65
*682 FILLER_20_77
*683 FILLER_20_83
*684 FILLER_20_85
*685 FILLER_20_97
*686 FILLER_21_105
*687 FILLER_21_111
*688 FILLER_21_113
*689 FILLER_21_125
*690 FILLER_21_137
*691 FILLER_21_149
*692 FILLER_21_15
*693 FILLER_21_161
*694 FILLER_21_167
*695 FILLER_21_169
*696 FILLER_21_181
*697 FILLER_21_193
*698 FILLER_21_205
*699 FILLER_21_217
*700 FILLER_21_223
*701 FILLER_21_225
*702 FILLER_21_237
*703 FILLER_21_249
*704 FILLER_21_261
*705 FILLER_21_27
*706 FILLER_21_273
*707 FILLER_21_279
*708 FILLER_21_281
*709 FILLER_21_293
*710 FILLER_21_3
*711 FILLER_21_305
*712 FILLER_21_317
*713 FILLER_21_329
*714 FILLER_21_335
*715 FILLER_21_337
*716 FILLER_21_349
*717 FILLER_21_361
*718 FILLER_21_373
*719 FILLER_21_385
*720 FILLER_21_39
*721 FILLER_21_391
*722 FILLER_21_393
*723 FILLER_21_405
*724 FILLER_21_51
*725 FILLER_21_55
*726 FILLER_21_57
*727 FILLER_21_69
*728 FILLER_21_81
*729 FILLER_21_93
*730 FILLER_22_109
*731 FILLER_22_121
*732 FILLER_22_133
*733 FILLER_22_139
*734 FILLER_22_141
*735 FILLER_22_15
*736 FILLER_22_153
*737 FILLER_22_160
*738 FILLER_22_168
*739 FILLER_22_171
*740 FILLER_22_177
*741 FILLER_22_189
*742 FILLER_22_195
*743 FILLER_22_197
*744 FILLER_22_209
*745 FILLER_22_221
*746 FILLER_22_233
*747 FILLER_22_245
*748 FILLER_22_251
*749 FILLER_22_253
*750 FILLER_22_265
*751 FILLER_22_27
*752 FILLER_22_277
*753 FILLER_22_289
*754 FILLER_22_29
*755 FILLER_22_3
*756 FILLER_22_301
*757 FILLER_22_307
*758 FILLER_22_309
*759 FILLER_22_321
*760 FILLER_22_333
*761 FILLER_22_345
*762 FILLER_22_357
*763 FILLER_22_363
*764 FILLER_22_365
*765 FILLER_22_377
*766 FILLER_22_389
*767 FILLER_22_401
*768 FILLER_22_41
*769 FILLER_22_53
*770 FILLER_22_65
*771 FILLER_22_77
*772 FILLER_22_83
*773 FILLER_22_85
*774 FILLER_22_97
*775 FILLER_23_105
*776 FILLER_23_111
*777 FILLER_23_113
*778 FILLER_23_125
*779 FILLER_23_137
*780 FILLER_23_142
*781 FILLER_23_15
*782 FILLER_23_166
*783 FILLER_23_169
*784 FILLER_23_178
*785 FILLER_23_190
*786 FILLER_23_202
*787 FILLER_23_214
*788 FILLER_23_222
*789 FILLER_23_225
*790 FILLER_23_237
*791 FILLER_23_249
*792 FILLER_23_261
*793 FILLER_23_27
*794 FILLER_23_273
*795 FILLER_23_279
*796 FILLER_23_281
*797 FILLER_23_293
*798 FILLER_23_3
*799 FILLER_23_305
*800 FILLER_23_317
*801 FILLER_23_329
*802 FILLER_23_335
*803 FILLER_23_337
*804 FILLER_23_349
*805 FILLER_23_361
*806 FILLER_23_373
*807 FILLER_23_385
*808 FILLER_23_39
*809 FILLER_23_391
*810 FILLER_23_393
*811 FILLER_23_405
*812 FILLER_23_51
*813 FILLER_23_55
*814 FILLER_23_57
*815 FILLER_23_69
*816 FILLER_23_81
*817 FILLER_23_93
*818 FILLER_24_109
*819 FILLER_24_121
*820 FILLER_24_133
*821 FILLER_24_139
*822 FILLER_24_141
*823 FILLER_24_145
*824 FILLER_24_15
*825 FILLER_24_169
*826 FILLER_24_194
*827 FILLER_24_197
*828 FILLER_24_201
*829 FILLER_24_213
*830 FILLER_24_225
*831 FILLER_24_237
*832 FILLER_24_249
*833 FILLER_24_253
*834 FILLER_24_265
*835 FILLER_24_27
*836 FILLER_24_277
*837 FILLER_24_289
*838 FILLER_24_29
*839 FILLER_24_3
*840 FILLER_24_301
*841 FILLER_24_307
*842 FILLER_24_309
*843 FILLER_24_321
*844 FILLER_24_333
*845 FILLER_24_345
*846 FILLER_24_357
*847 FILLER_24_363
*848 FILLER_24_365
*849 FILLER_24_377
*850 FILLER_24_389
*851 FILLER_24_401
*852 FILLER_24_41
*853 FILLER_24_53
*854 FILLER_24_65
*855 FILLER_24_77
*856 FILLER_24_83
*857 FILLER_24_85
*858 FILLER_24_97
*859 FILLER_25_105
*860 FILLER_25_111
*861 FILLER_25_113
*862 FILLER_25_125
*863 FILLER_25_137
*864 FILLER_25_141
*865 FILLER_25_15
*866 FILLER_25_166
*867 FILLER_25_169
*868 FILLER_25_173
*869 FILLER_25_180
*870 FILLER_25_209
*871 FILLER_25_215
*872 FILLER_25_223
*873 FILLER_25_225
*874 FILLER_25_237
*875 FILLER_25_249
*876 FILLER_25_261
*877 FILLER_25_27
*878 FILLER_25_273
*879 FILLER_25_279
*880 FILLER_25_281
*881 FILLER_25_293
*882 FILLER_25_3
*883 FILLER_25_305
*884 FILLER_25_317
*885 FILLER_25_329
*886 FILLER_25_335
*887 FILLER_25_337
*888 FILLER_25_349
*889 FILLER_25_361
*890 FILLER_25_373
*891 FILLER_25_385
*892 FILLER_25_39
*893 FILLER_25_391
*894 FILLER_25_393
*895 FILLER_25_405
*896 FILLER_25_51
*897 FILLER_25_55
*898 FILLER_25_57
*899 FILLER_25_69
*900 FILLER_25_81
*901 FILLER_25_93
*902 FILLER_26_109
*903 FILLER_26_121
*904 FILLER_26_131
*905 FILLER_26_138
*906 FILLER_26_141
*907 FILLER_26_148
*908 FILLER_26_15
*909 FILLER_26_173
*910 FILLER_26_180
*911 FILLER_26_187
*912 FILLER_26_193
*913 FILLER_26_197
*914 FILLER_26_209
*915 FILLER_26_221
*916 FILLER_26_233
*917 FILLER_26_245
*918 FILLER_26_251
*919 FILLER_26_253
*920 FILLER_26_265
*921 FILLER_26_27
*922 FILLER_26_277
*923 FILLER_26_289
*924 FILLER_26_29
*925 FILLER_26_3
*926 FILLER_26_301
*927 FILLER_26_307
*928 FILLER_26_309
*929 FILLER_26_321
*930 FILLER_26_333
*931 FILLER_26_345
*932 FILLER_26_357
*933 FILLER_26_363
*934 FILLER_26_365
*935 FILLER_26_377
*936 FILLER_26_389
*937 FILLER_26_401
*938 FILLER_26_41
*939 FILLER_26_53
*940 FILLER_26_65
*941 FILLER_26_77
*942 FILLER_26_83
*943 FILLER_26_85
*944 FILLER_26_97
*945 FILLER_27_105
*946 FILLER_27_111
*947 FILLER_27_113
*948 FILLER_27_125
*949 FILLER_27_137
*950 FILLER_27_141
*951 FILLER_27_15
*952 FILLER_27_166
*953 FILLER_27_169
*954 FILLER_27_191
*955 FILLER_27_197
*956 FILLER_27_209
*957 FILLER_27_221
*958 FILLER_27_225
*959 FILLER_27_237
*960 FILLER_27_249
*961 FILLER_27_261
*962 FILLER_27_27
*963 FILLER_27_273
*964 FILLER_27_279
*965 FILLER_27_281
*966 FILLER_27_293
*967 FILLER_27_3
*968 FILLER_27_305
*969 FILLER_27_317
*970 FILLER_27_329
*971 FILLER_27_335
*972 FILLER_27_337
*973 FILLER_27_349
*974 FILLER_27_361
*975 FILLER_27_373
*976 FILLER_27_385
*977 FILLER_27_39
*978 FILLER_27_391
*979 FILLER_27_393
*980 FILLER_27_405
*981 FILLER_27_51
*982 FILLER_27_55
*983 FILLER_27_57
*984 FILLER_27_69
*985 FILLER_27_81
*986 FILLER_27_93
*987 FILLER_28_109
*988 FILLER_28_121
*989 FILLER_28_133
*990 FILLER_28_139
*991 FILLER_28_141
*992 FILLER_28_145
*993 FILLER_28_149
*994 FILLER_28_15
*995 FILLER_28_153
*996 FILLER_28_178
*997 FILLER_28_190
*998 FILLER_28_197
*999 FILLER_28_209
*1000 FILLER_28_221
*1001 FILLER_28_233
*1002 FILLER_28_245
*1003 FILLER_28_251
*1004 FILLER_28_253
*1005 FILLER_28_265
*1006 FILLER_28_27
*1007 FILLER_28_277
*1008 FILLER_28_289
*1009 FILLER_28_29
*1010 FILLER_28_3
*1011 FILLER_28_301
*1012 FILLER_28_307
*1013 FILLER_28_309
*1014 FILLER_28_321
*1015 FILLER_28_333
*1016 FILLER_28_345
*1017 FILLER_28_357
*1018 FILLER_28_363
*1019 FILLER_28_365
*1020 FILLER_28_377
*1021 FILLER_28_389
*1022 FILLER_28_401
*1023 FILLER_28_41
*1024 FILLER_28_53
*1025 FILLER_28_65
*1026 FILLER_28_77
*1027 FILLER_28_83
*1028 FILLER_28_85
*1029 FILLER_28_97
*1030 FILLER_29_105
*1031 FILLER_29_111
*1032 FILLER_29_113
*1033 FILLER_29_125
*1034 FILLER_29_137
*1035 FILLER_29_149
*1036 FILLER_29_15
*1037 FILLER_29_155
*1038 FILLER_29_162
*1039 FILLER_29_169
*1040 FILLER_29_181
*1041 FILLER_29_193
*1042 FILLER_29_196
*1043 FILLER_29_208
*1044 FILLER_29_220
*1045 FILLER_29_225
*1046 FILLER_29_237
*1047 FILLER_29_249
*1048 FILLER_29_261
*1049 FILLER_29_27
*1050 FILLER_29_273
*1051 FILLER_29_279
*1052 FILLER_29_281
*1053 FILLER_29_293
*1054 FILLER_29_3
*1055 FILLER_29_305
*1056 FILLER_29_317
*1057 FILLER_29_329
*1058 FILLER_29_335
*1059 FILLER_29_337
*1060 FILLER_29_349
*1061 FILLER_29_361
*1062 FILLER_29_373
*1063 FILLER_29_385
*1064 FILLER_29_39
*1065 FILLER_29_391
*1066 FILLER_29_393
*1067 FILLER_29_405
*1068 FILLER_29_51
*1069 FILLER_29_55
*1070 FILLER_29_57
*1071 FILLER_29_69
*1072 FILLER_29_81
*1073 FILLER_29_93
*1074 FILLER_2_109
*1075 FILLER_2_121
*1076 FILLER_2_133
*1077 FILLER_2_139
*1078 FILLER_2_141
*1079 FILLER_2_15
*1080 FILLER_2_153
*1081 FILLER_2_165
*1082 FILLER_2_177
*1083 FILLER_2_189
*1084 FILLER_2_195
*1085 FILLER_2_197
*1086 FILLER_2_209
*1087 FILLER_2_221
*1088 FILLER_2_233
*1089 FILLER_2_245
*1090 FILLER_2_251
*1091 FILLER_2_253
*1092 FILLER_2_265
*1093 FILLER_2_27
*1094 FILLER_2_277
*1095 FILLER_2_289
*1096 FILLER_2_29
*1097 FILLER_2_3
*1098 FILLER_2_301
*1099 FILLER_2_307
*1100 FILLER_2_309
*1101 FILLER_2_321
*1102 FILLER_2_333
*1103 FILLER_2_345
*1104 FILLER_2_357
*1105 FILLER_2_363
*1106 FILLER_2_365
*1107 FILLER_2_377
*1108 FILLER_2_389
*1109 FILLER_2_401
*1110 FILLER_2_41
*1111 FILLER_2_53
*1112 FILLER_2_65
*1113 FILLER_2_77
*1114 FILLER_2_83
*1115 FILLER_2_85
*1116 FILLER_2_97
*1117 FILLER_30_109
*1118 FILLER_30_121
*1119 FILLER_30_133
*1120 FILLER_30_139
*1121 FILLER_30_141
*1122 FILLER_30_15
*1123 FILLER_30_153
*1124 FILLER_30_165
*1125 FILLER_30_173
*1126 FILLER_30_194
*1127 FILLER_30_197
*1128 FILLER_30_204
*1129 FILLER_30_210
*1130 FILLER_30_222
*1131 FILLER_30_234
*1132 FILLER_30_246
*1133 FILLER_30_253
*1134 FILLER_30_265
*1135 FILLER_30_27
*1136 FILLER_30_277
*1137 FILLER_30_289
*1138 FILLER_30_29
*1139 FILLER_30_3
*1140 FILLER_30_301
*1141 FILLER_30_307
*1142 FILLER_30_309
*1143 FILLER_30_321
*1144 FILLER_30_333
*1145 FILLER_30_345
*1146 FILLER_30_357
*1147 FILLER_30_363
*1148 FILLER_30_365
*1149 FILLER_30_377
*1150 FILLER_30_389
*1151 FILLER_30_401
*1152 FILLER_30_41
*1153 FILLER_30_53
*1154 FILLER_30_65
*1155 FILLER_30_77
*1156 FILLER_30_83
*1157 FILLER_30_85
*1158 FILLER_30_97
*1159 FILLER_31_105
*1160 FILLER_31_111
*1161 FILLER_31_113
*1162 FILLER_31_125
*1163 FILLER_31_137
*1164 FILLER_31_149
*1165 FILLER_31_15
*1166 FILLER_31_161
*1167 FILLER_31_167
*1168 FILLER_31_169
*1169 FILLER_31_179
*1170 FILLER_31_186
*1171 FILLER_31_210
*1172 FILLER_31_216
*1173 FILLER_31_225
*1174 FILLER_31_229
*1175 FILLER_31_237
*1176 FILLER_31_243
*1177 FILLER_31_249
*1178 FILLER_31_261
*1179 FILLER_31_27
*1180 FILLER_31_273
*1181 FILLER_31_279
*1182 FILLER_31_281
*1183 FILLER_31_293
*1184 FILLER_31_3
*1185 FILLER_31_305
*1186 FILLER_31_317
*1187 FILLER_31_329
*1188 FILLER_31_335
*1189 FILLER_31_337
*1190 FILLER_31_349
*1191 FILLER_31_361
*1192 FILLER_31_373
*1193 FILLER_31_385
*1194 FILLER_31_39
*1195 FILLER_31_391
*1196 FILLER_31_393
*1197 FILLER_31_405
*1198 FILLER_31_51
*1199 FILLER_31_55
*1200 FILLER_31_57
*1201 FILLER_31_69
*1202 FILLER_31_81
*1203 FILLER_31_93
*1204 FILLER_32_109
*1205 FILLER_32_121
*1206 FILLER_32_133
*1207 FILLER_32_139
*1208 FILLER_32_141
*1209 FILLER_32_15
*1210 FILLER_32_153
*1211 FILLER_32_165
*1212 FILLER_32_177
*1213 FILLER_32_189
*1214 FILLER_32_195
*1215 FILLER_32_197
*1216 FILLER_32_209
*1217 FILLER_32_221
*1218 FILLER_32_242
*1219 FILLER_32_249
*1220 FILLER_32_253
*1221 FILLER_32_265
*1222 FILLER_32_27
*1223 FILLER_32_277
*1224 FILLER_32_289
*1225 FILLER_32_29
*1226 FILLER_32_3
*1227 FILLER_32_301
*1228 FILLER_32_307
*1229 FILLER_32_309
*1230 FILLER_32_321
*1231 FILLER_32_333
*1232 FILLER_32_345
*1233 FILLER_32_357
*1234 FILLER_32_363
*1235 FILLER_32_365
*1236 FILLER_32_377
*1237 FILLER_32_389
*1238 FILLER_32_401
*1239 FILLER_32_41
*1240 FILLER_32_53
*1241 FILLER_32_65
*1242 FILLER_32_77
*1243 FILLER_32_83
*1244 FILLER_32_85
*1245 FILLER_32_97
*1246 FILLER_33_105
*1247 FILLER_33_111
*1248 FILLER_33_113
*1249 FILLER_33_125
*1250 FILLER_33_137
*1251 FILLER_33_149
*1252 FILLER_33_15
*1253 FILLER_33_161
*1254 FILLER_33_167
*1255 FILLER_33_169
*1256 FILLER_33_181
*1257 FILLER_33_193
*1258 FILLER_33_217
*1259 FILLER_33_223
*1260 FILLER_33_225
*1261 FILLER_33_230
*1262 FILLER_33_236
*1263 FILLER_33_261
*1264 FILLER_33_267
*1265 FILLER_33_27
*1266 FILLER_33_279
*1267 FILLER_33_281
*1268 FILLER_33_293
*1269 FILLER_33_3
*1270 FILLER_33_305
*1271 FILLER_33_317
*1272 FILLER_33_329
*1273 FILLER_33_335
*1274 FILLER_33_337
*1275 FILLER_33_349
*1276 FILLER_33_361
*1277 FILLER_33_373
*1278 FILLER_33_385
*1279 FILLER_33_39
*1280 FILLER_33_391
*1281 FILLER_33_393
*1282 FILLER_33_405
*1283 FILLER_33_51
*1284 FILLER_33_55
*1285 FILLER_33_57
*1286 FILLER_33_69
*1287 FILLER_33_81
*1288 FILLER_33_93
*1289 FILLER_34_109
*1290 FILLER_34_121
*1291 FILLER_34_133
*1292 FILLER_34_139
*1293 FILLER_34_141
*1294 FILLER_34_15
*1295 FILLER_34_153
*1296 FILLER_34_165
*1297 FILLER_34_177
*1298 FILLER_34_189
*1299 FILLER_34_195
*1300 FILLER_34_197
*1301 FILLER_34_205
*1302 FILLER_34_212
*1303 FILLER_34_216
*1304 FILLER_34_237
*1305 FILLER_34_244
*1306 FILLER_34_250
*1307 FILLER_34_253
*1308 FILLER_34_27
*1309 FILLER_34_276
*1310 FILLER_34_282
*1311 FILLER_34_29
*1312 FILLER_34_294
*1313 FILLER_34_3
*1314 FILLER_34_306
*1315 FILLER_34_309
*1316 FILLER_34_321
*1317 FILLER_34_333
*1318 FILLER_34_345
*1319 FILLER_34_357
*1320 FILLER_34_363
*1321 FILLER_34_365
*1322 FILLER_34_370
*1323 FILLER_34_382
*1324 FILLER_34_394
*1325 FILLER_34_406
*1326 FILLER_34_41
*1327 FILLER_34_53
*1328 FILLER_34_65
*1329 FILLER_34_77
*1330 FILLER_34_83
*1331 FILLER_34_85
*1332 FILLER_34_97
*1333 FILLER_35_105
*1334 FILLER_35_111
*1335 FILLER_35_113
*1336 FILLER_35_125
*1337 FILLER_35_137
*1338 FILLER_35_149
*1339 FILLER_35_15
*1340 FILLER_35_161
*1341 FILLER_35_167
*1342 FILLER_35_169
*1343 FILLER_35_181
*1344 FILLER_35_193
*1345 FILLER_35_205
*1346 FILLER_35_217
*1347 FILLER_35_223
*1348 FILLER_35_225
*1349 FILLER_35_231
*1350 FILLER_35_237
*1351 FILLER_35_259
*1352 FILLER_35_27
*1353 FILLER_35_271
*1354 FILLER_35_279
*1355 FILLER_35_281
*1356 FILLER_35_293
*1357 FILLER_35_3
*1358 FILLER_35_305
*1359 FILLER_35_317
*1360 FILLER_35_329
*1361 FILLER_35_335
*1362 FILLER_35_337
*1363 FILLER_35_349
*1364 FILLER_35_355
*1365 FILLER_35_359
*1366 FILLER_35_388
*1367 FILLER_35_39
*1368 FILLER_35_393
*1369 FILLER_35_405
*1370 FILLER_35_51
*1371 FILLER_35_55
*1372 FILLER_35_57
*1373 FILLER_35_69
*1374 FILLER_35_81
*1375 FILLER_35_93
*1376 FILLER_36_109
*1377 FILLER_36_121
*1378 FILLER_36_133
*1379 FILLER_36_139
*1380 FILLER_36_141
*1381 FILLER_36_15
*1382 FILLER_36_153
*1383 FILLER_36_165
*1384 FILLER_36_177
*1385 FILLER_36_189
*1386 FILLER_36_195
*1387 FILLER_36_197
*1388 FILLER_36_209
*1389 FILLER_36_221
*1390 FILLER_36_225
*1391 FILLER_36_228
*1392 FILLER_36_239
*1393 FILLER_36_246
*1394 FILLER_36_253
*1395 FILLER_36_258
*1396 FILLER_36_27
*1397 FILLER_36_270
*1398 FILLER_36_282
*1399 FILLER_36_29
*1400 FILLER_36_294
*1401 FILLER_36_3
*1402 FILLER_36_306
*1403 FILLER_36_309
*1404 FILLER_36_321
*1405 FILLER_36_333
*1406 FILLER_36_345
*1407 FILLER_36_357
*1408 FILLER_36_362
*1409 FILLER_36_365
*1410 FILLER_36_388
*1411 FILLER_36_400
*1412 FILLER_36_406
*1413 FILLER_36_41
*1414 FILLER_36_53
*1415 FILLER_36_65
*1416 FILLER_36_77
*1417 FILLER_36_83
*1418 FILLER_36_85
*1419 FILLER_36_97
*1420 FILLER_37_105
*1421 FILLER_37_111
*1422 FILLER_37_113
*1423 FILLER_37_125
*1424 FILLER_37_137
*1425 FILLER_37_149
*1426 FILLER_37_15
*1427 FILLER_37_161
*1428 FILLER_37_167
*1429 FILLER_37_169
*1430 FILLER_37_181
*1431 FILLER_37_193
*1432 FILLER_37_205
*1433 FILLER_37_217
*1434 FILLER_37_223
*1435 FILLER_37_225
*1436 FILLER_37_237
*1437 FILLER_37_266
*1438 FILLER_37_27
*1439 FILLER_37_272
*1440 FILLER_37_281
*1441 FILLER_37_293
*1442 FILLER_37_3
*1443 FILLER_37_305
*1444 FILLER_37_317
*1445 FILLER_37_329
*1446 FILLER_37_335
*1447 FILLER_37_337
*1448 FILLER_37_349
*1449 FILLER_37_361
*1450 FILLER_37_373
*1451 FILLER_37_385
*1452 FILLER_37_39
*1453 FILLER_37_391
*1454 FILLER_37_393
*1455 FILLER_37_398
*1456 FILLER_37_405
*1457 FILLER_37_51
*1458 FILLER_37_55
*1459 FILLER_37_57
*1460 FILLER_37_69
*1461 FILLER_37_81
*1462 FILLER_37_93
*1463 FILLER_38_109
*1464 FILLER_38_121
*1465 FILLER_38_133
*1466 FILLER_38_139
*1467 FILLER_38_141
*1468 FILLER_38_15
*1469 FILLER_38_153
*1470 FILLER_38_165
*1471 FILLER_38_177
*1472 FILLER_38_189
*1473 FILLER_38_195
*1474 FILLER_38_197
*1475 FILLER_38_209
*1476 FILLER_38_221
*1477 FILLER_38_233
*1478 FILLER_38_245
*1479 FILLER_38_251
*1480 FILLER_38_253
*1481 FILLER_38_265
*1482 FILLER_38_27
*1483 FILLER_38_277
*1484 FILLER_38_289
*1485 FILLER_38_29
*1486 FILLER_38_3
*1487 FILLER_38_301
*1488 FILLER_38_307
*1489 FILLER_38_309
*1490 FILLER_38_321
*1491 FILLER_38_333
*1492 FILLER_38_345
*1493 FILLER_38_357
*1494 FILLER_38_363
*1495 FILLER_38_365
*1496 FILLER_38_377
*1497 FILLER_38_389
*1498 FILLER_38_401
*1499 FILLER_38_41
*1500 FILLER_38_53
*1501 FILLER_38_65
*1502 FILLER_38_77
*1503 FILLER_38_83
*1504 FILLER_38_85
*1505 FILLER_38_97
*1506 FILLER_39_105
*1507 FILLER_39_111
*1508 FILLER_39_113
*1509 FILLER_39_125
*1510 FILLER_39_137
*1511 FILLER_39_149
*1512 FILLER_39_15
*1513 FILLER_39_161
*1514 FILLER_39_167
*1515 FILLER_39_169
*1516 FILLER_39_181
*1517 FILLER_39_193
*1518 FILLER_39_205
*1519 FILLER_39_217
*1520 FILLER_39_223
*1521 FILLER_39_225
*1522 FILLER_39_237
*1523 FILLER_39_249
*1524 FILLER_39_261
*1525 FILLER_39_27
*1526 FILLER_39_273
*1527 FILLER_39_279
*1528 FILLER_39_281
*1529 FILLER_39_293
*1530 FILLER_39_3
*1531 FILLER_39_305
*1532 FILLER_39_317
*1533 FILLER_39_329
*1534 FILLER_39_335
*1535 FILLER_39_337
*1536 FILLER_39_349
*1537 FILLER_39_361
*1538 FILLER_39_373
*1539 FILLER_39_385
*1540 FILLER_39_39
*1541 FILLER_39_391
*1542 FILLER_39_393
*1543 FILLER_39_405
*1544 FILLER_39_51
*1545 FILLER_39_55