*SPEF "ieee 1481-1999"
*DESIGN "grid_io_right"
*DATE "11:11:11 Fri 11 11, 1111"
*VENDOR "OpenRCX"
*PROGRAM "Parallel Extraction"
*VERSION "1.0"
*DESIGN_FLOW "NAME_SCOPE LOCAL" "PIN_CAP NONE"
*DIVIDER /
*DELIMITER :
*BUS_DELIMITER []
*T_UNIT 1 NS
*C_UNIT 1 PF
*R_UNIT 1 OHM
*L_UNIT 1 HENRY

*NAME_MAP
*1 ccff_head
*2 ccff_tail
*3 gfpga_pad_GPIO_PAD[0]
*4 gfpga_pad_GPIO_PAD[1]
*5 gfpga_pad_GPIO_PAD[2]
*6 gfpga_pad_GPIO_PAD[3]
*7 gfpga_pad_GPIO_PAD[4]
*8 gfpga_pad_GPIO_PAD[5]
*9 gfpga_pad_GPIO_PAD[6]
*10 gfpga_pad_GPIO_PAD[7]
*11 left_width_0_height_0_subtile_0__pin_inpad_0_
*12 left_width_0_height_0_subtile_0__pin_outpad_0_
*13 left_width_0_height_0_subtile_1__pin_inpad_0_
*14 left_width_0_height_0_subtile_1__pin_outpad_0_
*15 left_width_0_height_0_subtile_2__pin_inpad_0_
*16 left_width_0_height_0_subtile_2__pin_outpad_0_
*17 left_width_0_height_0_subtile_3__pin_inpad_0_
*18 left_width_0_height_0_subtile_3__pin_outpad_0_
*19 left_width_0_height_0_subtile_4__pin_inpad_0_
*20 left_width_0_height_0_subtile_4__pin_outpad_0_
*21 left_width_0_height_0_subtile_5__pin_inpad_0_
*22 left_width_0_height_0_subtile_5__pin_outpad_0_
*23 left_width_0_height_0_subtile_6__pin_inpad_0_
*24 left_width_0_height_0_subtile_6__pin_outpad_0_
*25 left_width_0_height_0_subtile_7__pin_inpad_0_
*26 left_width_0_height_0_subtile_7__pin_outpad_0_
*27 pReset
*28 prog_clk
*31 _00_
*32 _01_
*33 _02_
*34 _03_
*35 _04_
*36 _05_
*37 _06_
*38 _07_
*39 _08_
*40 _09_
*41 _10_
*42 _11_
*43 _12_
*44 _13_
*45 _14_
*46 _15_
*47 _16_
*48 _17_
*49 _18_
*50 _19_
*51 _20_
*52 _21_
*53 _22_
*54 _23_
*55 _24_
*56 _25_
*57 _26_
*58 _27_
*59 _28_
*60 _29_
*61 _30_
*62 _31_
*63 logical_tile_io_mode_io__0\.ccff_tail
*64 logical_tile_io_mode_io__1\.ccff_tail
*65 logical_tile_io_mode_io__2\.ccff_tail
*66 logical_tile_io_mode_io__3\.ccff_tail
*67 logical_tile_io_mode_io__4\.ccff_tail
*68 logical_tile_io_mode_io__5\.ccff_tail
*69 logical_tile_io_mode_io__6\.ccff_tail
*70 net1
*71 net10
*72 net11
*73 net2
*74 net3
*75 net4
*76 net5
*77 net6
*78 net7
*79 net8
*80 net9
*81 ANTENNA__33__A
*82 ANTENNA__34__A
*83 ANTENNA__39__A
*84 ANTENNA__40__A
*85 ANTENNA__56__A
*86 ANTENNA__57__A
*87 ANTENNA__58__A
*88 ANTENNA__59__A
*89 ANTENNA__60__A
*90 ANTENNA__61__A
*91 ANTENNA__62__A
*92 ANTENNA__63__A
*93 ANTENNA__64__CLK
*94 ANTENNA__64__D
*95 ANTENNA__65__CLK
*96 ANTENNA__66__CLK
*97 ANTENNA__67__CLK
*98 ANTENNA__68__CLK
*99 ANTENNA__69__CLK
*100 ANTENNA__70__CLK
*101 ANTENNA__70__D
*102 ANTENNA__71__CLK
*103 ANTENNA__72__A
*104 ANTENNA__73__A
*105 ANTENNA__75__A
*106 ANTENNA__76__A
*107 ANTENNA__77__A
*108 ANTENNA__79__A
*109 ANTENNA__80__A
*110 ANTENNA__84__A
*111 ANTENNA__87__A
*112 ANTENNA_input10_A
*113 ANTENNA_input1_A
*114 ANTENNA_input2_A
*115 ANTENNA_input3_A
*116 ANTENNA_input4_A
*117 ANTENNA_input5_A
*118 ANTENNA_input6_A
*119 ANTENNA_input7_A
*120 ANTENNA_input8_A
*121 ANTENNA_input9_A
*122 ANTENNA_output11_A
*123 FILLER_0_109
*124 FILLER_0_113
*125 FILLER_0_118
*126 FILLER_0_124
*127 FILLER_0_136
*128 FILLER_0_141
*129 FILLER_0_15
*130 FILLER_0_153
*131 FILLER_0_165
*132 FILLER_0_169
*133 FILLER_0_174
*134 FILLER_0_180
*135 FILLER_0_192
*136 FILLER_0_197
*137 FILLER_0_209
*138 FILLER_0_221
*139 FILLER_0_225
*140 FILLER_0_237
*141 FILLER_0_249
*142 FILLER_0_253
*143 FILLER_0_265
*144 FILLER_0_27
*145 FILLER_0_277
*146 FILLER_0_281
*147 FILLER_0_29
*148 FILLER_0_293
*149 FILLER_0_3
*150 FILLER_0_305
*151 FILLER_0_309
*152 FILLER_0_321
*153 FILLER_0_333
*154 FILLER_0_337
*155 FILLER_0_349
*156 FILLER_0_361
*157 FILLER_0_365
*158 FILLER_0_377
*159 FILLER_0_389
*160 FILLER_0_393
*161 FILLER_0_397
*162 FILLER_0_405
*163 FILLER_0_41
*164 FILLER_0_53
*165 FILLER_0_57
*166 FILLER_0_69
*167 FILLER_0_81
*168 FILLER_0_85
*169 FILLER_0_97
*170 FILLER_10_109
*171 FILLER_10_121
*172 FILLER_10_133
*173 FILLER_10_139
*174 FILLER_10_141
*175 FILLER_10_15
*176 FILLER_10_153
*177 FILLER_10_165
*178 FILLER_10_177
*179 FILLER_10_189
*180 FILLER_10_195
*181 FILLER_10_197
*182 FILLER_10_209
*183 FILLER_10_221
*184 FILLER_10_233
*185 FILLER_10_245
*186 FILLER_10_251
*187 FILLER_10_253
*188 FILLER_10_265
*189 FILLER_10_27
*190 FILLER_10_277
*191 FILLER_10_289
*192 FILLER_10_29
*193 FILLER_10_3
*194 FILLER_10_301
*195 FILLER_10_307
*196 FILLER_10_309
*197 FILLER_10_321
*198 FILLER_10_333
*199 FILLER_10_345
*200 FILLER_10_357
*201 FILLER_10_363
*202 FILLER_10_365
*203 FILLER_10_377
*204 FILLER_10_389
*205 FILLER_10_401
*206 FILLER_10_41
*207 FILLER_10_53
*208 FILLER_10_65
*209 FILLER_10_77
*210 FILLER_10_83
*211 FILLER_10_85
*212 FILLER_10_97
*213 FILLER_11_105
*214 FILLER_11_111
*215 FILLER_11_113
*216 FILLER_11_125
*217 FILLER_11_137
*218 FILLER_11_149
*219 FILLER_11_15
*220 FILLER_11_161
*221 FILLER_11_167
*222 FILLER_11_169
*223 FILLER_11_181
*224 FILLER_11_193
*225 FILLER_11_205
*226 FILLER_11_217
*227 FILLER_11_223
*228 FILLER_11_225
*229 FILLER_11_237
*230 FILLER_11_249
*231 FILLER_11_261
*232 FILLER_11_27
*233 FILLER_11_273
*234 FILLER_11_279
*235 FILLER_11_281
*236 FILLER_11_293
*237 FILLER_11_3
*238 FILLER_11_305
*239 FILLER_11_317
*240 FILLER_11_329
*241 FILLER_11_335
*242 FILLER_11_337
*243 FILLER_11_349
*244 FILLER_11_361
*245 FILLER_11_373
*246 FILLER_11_385
*247 FILLER_11_39
*248 FILLER_11_391
*249 FILLER_11_393
*250 FILLER_11_405
*251 FILLER_11_51
*252 FILLER_11_55
*253 FILLER_11_57
*254 FILLER_11_69
*255 FILLER_11_81
*256 FILLER_11_93
*257 FILLER_12_109
*258 FILLER_12_121
*259 FILLER_12_133
*260 FILLER_12_139
*261 FILLER_12_141
*262 FILLER_12_15
*263 FILLER_12_153
*264 FILLER_12_165
*265 FILLER_12_177
*266 FILLER_12_189
*267 FILLER_12_195
*268 FILLER_12_197
*269 FILLER_12_209
*270 FILLER_12_232
*271 FILLER_12_244
*272 FILLER_12_253
*273 FILLER_12_265
*274 FILLER_12_27
*275 FILLER_12_277
*276 FILLER_12_289
*277 FILLER_12_29
*278 FILLER_12_3
*279 FILLER_12_301
*280 FILLER_12_307
*281 FILLER_12_309
*282 FILLER_12_321
*283 FILLER_12_333
*284 FILLER_12_345
*285 FILLER_12_357
*286 FILLER_12_363
*287 FILLER_12_365
*288 FILLER_12_377
*289 FILLER_12_389
*290 FILLER_12_401
*291 FILLER_12_41
*292 FILLER_12_53
*293 FILLER_12_65
*294 FILLER_12_77
*295 FILLER_12_83
*296 FILLER_12_85
*297 FILLER_12_97
*298 FILLER_13_105
*299 FILLER_13_111
*300 FILLER_13_113
*301 FILLER_13_125
*302 FILLER_13_137
*303 FILLER_13_149
*304 FILLER_13_15
*305 FILLER_13_161
*306 FILLER_13_167
*307 FILLER_13_169
*308 FILLER_13_181
*309 FILLER_13_193
*310 FILLER_13_205
*311 FILLER_13_214
*312 FILLER_13_222
*313 FILLER_13_225
*314 FILLER_13_237
*315 FILLER_13_249
*316 FILLER_13_261
*317 FILLER_13_27
*318 FILLER_13_273
*319 FILLER_13_279
*320 FILLER_13_281
*321 FILLER_13_293
*322 FILLER_13_3
*323 FILLER_13_305
*324 FILLER_13_317
*325 FILLER_13_329
*326 FILLER_13_335
*327 FILLER_13_337
*328 FILLER_13_349
*329 FILLER_13_361
*330 FILLER_13_373
*331 FILLER_13_385
*332 FILLER_13_39
*333 FILLER_13_391
*334 FILLER_13_393
*335 FILLER_13_405
*336 FILLER_13_51
*337 FILLER_13_55
*338 FILLER_13_57
*339 FILLER_13_69
*340 FILLER_13_81
*341 FILLER_13_93
*342 FILLER_14_109
*343 FILLER_14_121
*344 FILLER_14_133
*345 FILLER_14_139
*346 FILLER_14_141
*347 FILLER_14_15
*348 FILLER_14_153
*349 FILLER_14_165
*350 FILLER_14_177
*351 FILLER_14_189
*352 FILLER_14_195
*353 FILLER_14_197
*354 FILLER_14_212
*355 FILLER_14_219
*356 FILLER_14_244
*357 FILLER_14_250
*358 FILLER_14_253
*359 FILLER_14_265
*360 FILLER_14_27
*361 FILLER_14_277
*362 FILLER_14_289
*363 FILLER_14_29
*364 FILLER_14_3
*365 FILLER_14_301
*366 FILLER_14_307
*367 FILLER_14_309
*368 FILLER_14_321
*369 FILLER_14_333
*370 FILLER_14_345
*371 FILLER_14_357
*372 FILLER_14_363
*373 FILLER_14_365
*374 FILLER_14_377
*375 FILLER_14_389
*376 FILLER_14_401
*377 FILLER_14_41
*378 FILLER_14_53
*379 FILLER_14_65
*380 FILLER_14_77
*381 FILLER_14_83
*382 FILLER_14_85
*383 FILLER_14_97
*384 FILLER_15_105
*385 FILLER_15_111
*386 FILLER_15_113
*387 FILLER_15_125
*388 FILLER_15_137
*389 FILLER_15_149
*390 FILLER_15_15
*391 FILLER_15_161
*392 FILLER_15_167
*393 FILLER_15_169
*394 FILLER_15_181
*395 FILLER_15_193
*396 FILLER_15_205
*397 FILLER_15_217
*398 FILLER_15_223
*399 FILLER_15_225
*400 FILLER_15_237
*401 FILLER_15_249
*402 FILLER_15_261
*403 FILLER_15_27
*404 FILLER_15_273
*405 FILLER_15_279
*406 FILLER_15_281
*407 FILLER_15_293
*408 FILLER_15_3
*409 FILLER_15_305
*410 FILLER_15_317
*411 FILLER_15_329
*412 FILLER_15_335
*413 FILLER_15_337
*414 FILLER_15_349
*415 FILLER_15_361
*416 FILLER_15_373
*417 FILLER_15_385
*418 FILLER_15_39
*419 FILLER_15_391
*420 FILLER_15_393
*421 FILLER_15_405
*422 FILLER_15_51
*423 FILLER_15_55
*424 FILLER_15_57
*425 FILLER_15_69
*426 FILLER_15_81
*427 FILLER_15_93
*428 FILLER_16_109
*429 FILLER_16_121
*430 FILLER_16_133
*431 FILLER_16_139
*432 FILLER_16_141
*433 FILLER_16_15
*434 FILLER_16_153
*435 FILLER_16_165
*436 FILLER_16_177
*437 FILLER_16_189
*438 FILLER_16_195
*439 FILLER_16_197
*440 FILLER_16_209
*441 FILLER_16_221
*442 FILLER_16_233
*443 FILLER_16_245
*444 FILLER_16_251
*445 FILLER_16_253
*446 FILLER_16_265
*447 FILLER_16_27
*448 FILLER_16_277
*449 FILLER_16_289
*450 FILLER_16_29
*451 FILLER_16_3
*452 FILLER_16_301
*453 FILLER_16_307
*454 FILLER_16_309
*455 FILLER_16_321
*456 FILLER_16_333
*457 FILLER_16_345
*458 FILLER_16_357
*459 FILLER_16_363
*460 FILLER_16_365
*461 FILLER_16_377
*462 FILLER_16_389
*463 FILLER_16_401
*464 FILLER_16_41
*465 FILLER_16_53
*466 FILLER_16_65
*467 FILLER_16_77
*468 FILLER_16_83
*469 FILLER_16_85
*470 FILLER_16_97
*471 FILLER_17_105
*472 FILLER_17_111
*473 FILLER_17_113
*474 FILLER_17_125
*475 FILLER_17_137
*476 FILLER_17_149
*477 FILLER_17_15
*478 FILLER_17_161
*479 FILLER_17_167
*480 FILLER_17_169
*481 FILLER_17_181
*482 FILLER_17_193
*483 FILLER_17_205
*484 FILLER_17_217
*485 FILLER_17_223
*486 FILLER_17_225
*487 FILLER_17_237
*488 FILLER_17_249
*489 FILLER_17_261
*490 FILLER_17_27
*491 FILLER_17_273
*492 FILLER_17_279
*493 FILLER_17_281
*494 FILLER_17_293
*495 FILLER_17_3
*496 FILLER_17_305
*497 FILLER_17_317
*498 FILLER_17_329
*499 FILLER_17_335
*500 FILLER_17_337
*501 FILLER_17_349
*502 FILLER_17_361
*503 FILLER_17_373
*504 FILLER_17_385
*505 FILLER_17_39
*506 FILLER_17_391
*507 FILLER_17_393
*508 FILLER_17_405
*509 FILLER_17_51
*510 FILLER_17_55
*511 FILLER_17_57
*512 FILLER_17_69
*513 FILLER_17_81
*514 FILLER_17_93
*515 FILLER_18_109
*516 FILLER_18_121
*517 FILLER_18_133
*518 FILLER_18_139
*519 FILLER_18_141
*520 FILLER_18_15
*521 FILLER_18_153
*522 FILLER_18_165
*523 FILLER_18_177
*524 FILLER_18_189
*525 FILLER_18_195
*526 FILLER_18_197
*527 FILLER_18_209
*528 FILLER_18_221
*529 FILLER_18_233
*530 FILLER_18_245
*531 FILLER_18_251
*532 FILLER_18_253
*533 FILLER_18_265
*534 FILLER_18_27
*535 FILLER_18_277
*536 FILLER_18_289
*537 FILLER_18_29
*538 FILLER_18_3
*539 FILLER_18_301
*540 FILLER_18_307
*541 FILLER_18_309
*542 FILLER_18_321
*543 FILLER_18_333
*544 FILLER_18_345
*545 FILLER_18_357
*546 FILLER_18_363
*547 FILLER_18_365
*548 FILLER_18_377
*549 FILLER_18_389
*550 FILLER_18_401
*551 FILLER_18_41
*552 FILLER_18_53
*553 FILLER_18_65
*554 FILLER_18_77
*555 FILLER_18_83
*556 FILLER_18_85
*557 FILLER_18_97
*558 FILLER_19_105
*559 FILLER_19_111
*560 FILLER_19_113
*561 FILLER_19_125
*562 FILLER_19_137
*563 FILLER_19_149
*564 FILLER_19_15
*565 FILLER_19_161
*566 FILLER_19_167
*567 FILLER_19_169
*568 FILLER_19_181
*569 FILLER_19_193
*570 FILLER_19_205
*571 FILLER_19_217
*572 FILLER_19_223
*573 FILLER_19_225
*574 FILLER_19_237
*575 FILLER_19_249
*576 FILLER_19_261
*577 FILLER_19_27
*578 FILLER_19_273
*579 FILLER_19_279
*580 FILLER_19_281
*581 FILLER_19_293
*582 FILLER_19_3
*583 FILLER_19_305
*584 FILLER_19_317
*585 FILLER_19_329
*586 FILLER_19_335
*587 FILLER_19_337
*588 FILLER_19_349
*589 FILLER_19_361
*590 FILLER_19_373
*591 FILLER_19_385
*592 FILLER_19_39
*593 FILLER_19_391
*594 FILLER_19_393
*595 FILLER_19_405
*596 FILLER_19_51
*597 FILLER_19_55
*598 FILLER_19_57
*599 FILLER_19_69
*600 FILLER_19_81
*601 FILLER_19_93
*602 FILLER_1_105
*603 FILLER_1_111
*604 FILLER_1_113
*605 FILLER_1_125
*606 FILLER_1_137
*607 FILLER_1_149
*608 FILLER_1_161
*609 FILLER_1_167
*610 FILLER_1_169
*611 FILLER_1_181
*612 FILLER_1_19
*613 FILLER_1_193
*614 FILLER_1_205
*615 FILLER_1_217
*616 FILLER_1_223
*617 FILLER_1_225
*618 FILLER_1_237
*619 FILLER_1_249
*620 FILLER_1_261
*621 FILLER_1_273
*622 FILLER_1_279
*623 FILLER_1_281
*624 FILLER_1_293
*625 FILLER_1_3
*626 FILLER_1_305
*627 FILLER_1_31
*628 FILLER_1_317
*629 FILLER_1_329
*630 FILLER_1_335
*631 FILLER_1_337
*632 FILLER_1_349
*633 FILLER_1_361
*634 FILLER_1_373
*635 FILLER_1_385
*636 FILLER_1_391
*637 FILLER_1_393
*638 FILLER_1_405
*639 FILLER_1_43
*640 FILLER_1_55
*641 FILLER_1_57
*642 FILLER_1_69
*643 FILLER_1_7
*644 FILLER_1_81
*645 FILLER_1_93
*646 FILLER_20_109
*647 FILLER_20_121
*648 FILLER_20_133
*649 FILLER_20_139
*650 FILLER_20_141
*651 FILLER_20_15
*652 FILLER_20_153
*653 FILLER_20_165
*654 FILLER_20_177
*655 FILLER_20_189
*656 FILLER_20_195
*657 FILLER_20_197
*658 FILLER_20_209
*659 FILLER_20_221
*660 FILLER_20_233
*661 FILLER_20_245
*662 FILLER_20_251
*663 FILLER_20_253
*664 FILLER_20_265
*665 FILLER_20_27
*666 FILLER_20_277
*667 FILLER_20_289
*668 FILLER_20_29
*669 FILLER_20_3
*670 FILLER_20_301
*671 FILLER_20_307
*672 FILLER_20_309
*673 FILLER_20_321
*674 FILLER_20_333
*675 FILLER_20_345
*676 FILLER_20_357
*677 FILLER_20_363
*678 FILLER_20_365
*679 FILLER_20_377
*680 FILLER_20_389
*681 FILLER_20_401
*682 FILLER_20_41
*683 FILLER_20_53
*684 FILLER_20_65
*685 FILLER_20_77
*686 FILLER_20_83
*687 FILLER_20_85
*688 FILLER_20_97
*689 FILLER_21_105
*690 FILLER_21_111
*691 FILLER_21_113
*692 FILLER_21_125
*693 FILLER_21_137
*694 FILLER_21_149
*695 FILLER_21_15
*696 FILLER_21_161
*697 FILLER_21_167
*698 FILLER_21_169
*699 FILLER_21_181
*700 FILLER_21_193
*701 FILLER_21_205
*702 FILLER_21_217
*703 FILLER_21_223
*704 FILLER_21_225
*705 FILLER_21_237
*706 FILLER_21_249
*707 FILLER_21_261
*708 FILLER_21_27
*709 FILLER_21_273
*710 FILLER_21_279
*711 FILLER_21_281
*712 FILLER_21_293
*713 FILLER_21_3
*714 FILLER_21_305
*715 FILLER_21_317
*716 FILLER_21_329
*717 FILLER_21_335
*718 FILLER_21_337
*719 FILLER_21_349
*720 FILLER_21_361
*721 FILLER_21_373
*722 FILLER_21_385
*723 FILLER_21_39
*724 FILLER_21_391
*725 FILLER_21_393
*726 FILLER_21_405
*727 FILLER_21_51
*728 FILLER_21_55
*729 FILLER_21_57
*730 FILLER_21_69
*731 FILLER_21_81
*732 FILLER_21_93
*733 FILLER_22_109
*734 FILLER_22_121
*735 FILLER_22_133
*736 FILLER_22_139
*737 FILLER_22_141
*738 FILLER_22_145
*739 FILLER_22_15
*740 FILLER_22_153
*741 FILLER_22_165
*742 FILLER_22_168
*743 FILLER_22_180
*744 FILLER_22_192
*745 FILLER_22_197
*746 FILLER_22_209
*747 FILLER_22_221
*748 FILLER_22_233
*749 FILLER_22_245
*750 FILLER_22_251
*751 FILLER_22_253
*752 FILLER_22_265
*753 FILLER_22_27
*754 FILLER_22_277
*755 FILLER_22_289
*756 FILLER_22_29
*757 FILLER_22_3
*758 FILLER_22_301
*759 FILLER_22_307
*760 FILLER_22_309
*761 FILLER_22_321
*762 FILLER_22_333
*763 FILLER_22_345
*764 FILLER_22_357
*765 FILLER_22_363
*766 FILLER_22_365
*767 FILLER_22_377
*768 FILLER_22_389
*769 FILLER_22_401
*770 FILLER_22_41
*771 FILLER_22_53
*772 FILLER_22_65
*773 FILLER_22_77
*774 FILLER_22_83
*775 FILLER_22_85
*776 FILLER_22_97
*777 FILLER_23_105
*778 FILLER_23_111
*779 FILLER_23_113
*780 FILLER_23_125
*781 FILLER_23_128
*782 FILLER_23_132
*783 FILLER_23_136
*784 FILLER_23_143
*785 FILLER_23_149
*786 FILLER_23_15
*787 FILLER_23_156
*788 FILLER_23_165
*789 FILLER_23_169
*790 FILLER_23_174
*791 FILLER_23_186
*792 FILLER_23_198
*793 FILLER_23_210
*794 FILLER_23_222
*795 FILLER_23_225
*796 FILLER_23_237
*797 FILLER_23_249
*798 FILLER_23_261
*799 FILLER_23_27
*800 FILLER_23_273
*801 FILLER_23_279
*802 FILLER_23_281
*803 FILLER_23_293
*804 FILLER_23_3
*805 FILLER_23_305
*806 FILLER_23_317
*807 FILLER_23_329
*808 FILLER_23_335
*809 FILLER_23_337
*810 FILLER_23_349
*811 FILLER_23_361
*812 FILLER_23_373
*813 FILLER_23_385
*814 FILLER_23_39
*815 FILLER_23_391
*816 FILLER_23_393
*817 FILLER_23_405
*818 FILLER_23_51
*819 FILLER_23_55
*820 FILLER_23_57
*821 FILLER_23_69
*822 FILLER_23_81
*823 FILLER_23_93
*824 FILLER_24_109
*825 FILLER_24_121
*826 FILLER_24_124
*827 FILLER_24_131
*828 FILLER_24_138
*829 FILLER_24_141
*830 FILLER_24_148
*831 FILLER_24_15
*832 FILLER_24_157
*833 FILLER_24_182
*834 FILLER_24_194
*835 FILLER_24_197
*836 FILLER_24_209
*837 FILLER_24_221
*838 FILLER_24_233
*839 FILLER_24_245
*840 FILLER_24_251
*841 FILLER_24_253
*842 FILLER_24_265
*843 FILLER_24_27
*844 FILLER_24_277
*845 FILLER_24_289
*846 FILLER_24_29
*847 FILLER_24_3
*848 FILLER_24_301
*849 FILLER_24_307
*850 FILLER_24_309
*851 FILLER_24_321
*852 FILLER_24_333
*853 FILLER_24_345
*854 FILLER_24_357
*855 FILLER_24_363
*856 FILLER_24_365
*857 FILLER_24_377
*858 FILLER_24_389
*859 FILLER_24_401
*860 FILLER_24_41
*861 FILLER_24_53
*862 FILLER_24_65
*863 FILLER_24_77
*864 FILLER_24_83
*865 FILLER_24_85
*866 FILLER_24_97
*867 FILLER_25_110
*868 FILLER_25_113
*869 FILLER_25_117
*870 FILLER_25_141
*871 FILLER_25_15
*872 FILLER_25_166
*873 FILLER_25_169
*874 FILLER_25_192
*875 FILLER_25_198
*876 FILLER_25_210
*877 FILLER_25_222
*878 FILLER_25_225
*879 FILLER_25_237
*880 FILLER_25_249
*881 FILLER_25_261
*882 FILLER_25_27
*883 FILLER_25_273
*884 FILLER_25_279
*885 FILLER_25_281
*886 FILLER_25_293
*887 FILLER_25_3
*888 FILLER_25_305
*889 FILLER_25_317
*890 FILLER_25_329
*891 FILLER_25_335
*892 FILLER_25_337
*893 FILLER_25_349
*894 FILLER_25_361
*895 FILLER_25_373
*896 FILLER_25_385
*897 FILLER_25_39
*898 FILLER_25_391
*899 FILLER_25_393
*900 FILLER_25_405
*901 FILLER_25_51
*902 FILLER_25_55
*903 FILLER_25_57
*904 FILLER_25_62
*905 FILLER_25_74
*906 FILLER_25_86
*907 FILLER_25_98
*908 FILLER_26_109
*909 FILLER_26_114
*910 FILLER_26_138
*911 FILLER_26_141
*912 FILLER_26_15
*913 FILLER_26_164
*914 FILLER_26_188
*915 FILLER_26_194
*916 FILLER_26_197
*917 FILLER_26_202
*918 FILLER_26_208
*919 FILLER_26_220
*920 FILLER_26_232
*921 FILLER_26_244
*922 FILLER_26_253
*923 FILLER_26_265
*924 FILLER_26_27
*925 FILLER_26_277
*926 FILLER_26_289
*927 FILLER_26_29
*928 FILLER_26_3
*929 FILLER_26_301
*930 FILLER_26_307
*931 FILLER_26_309
*932 FILLER_26_321
*933 FILLER_26_333
*934 FILLER_26_345
*935 FILLER_26_357
*936 FILLER_26_363
*937 FILLER_26_365
*938 FILLER_26_377
*939 FILLER_26_389
*940 FILLER_26_401
*941 FILLER_26_41
*942 FILLER_26_49
*943 FILLER_26_73
*944 FILLER_26_81
*945 FILLER_26_85
*946 FILLER_26_97
*947 FILLER_27_110
*948 FILLER_27_113
*949 FILLER_27_141
*950 FILLER_27_15
*951 FILLER_27_166
*952 FILLER_27_169
*953 FILLER_27_174
*954 FILLER_27_182
*955 FILLER_27_203
*956 FILLER_27_209
*957 FILLER_27_221
*958 FILLER_27_225
*959 FILLER_27_237
*960 FILLER_27_249
*961 FILLER_27_261
*962 FILLER_27_27
*963 FILLER_27_273
*964 FILLER_27_279
*965 FILLER_27_281
*966 FILLER_27_293
*967 FILLER_27_3
*968 FILLER_27_305
*969 FILLER_27_317
*970 FILLER_27_329
*971 FILLER_27_335
*972 FILLER_27_337
*973 FILLER_27_349
*974 FILLER_27_361
*975 FILLER_27_373
*976 FILLER_27_385
*977 FILLER_27_39
*978 FILLER_27_391
*979 FILLER_27_393
*980 FILLER_27_405
*981 FILLER_27_54
*982 FILLER_27_57
*983 FILLER_27_80
*984 FILLER_27_86
*985 FILLER_27_98
*986 FILLER_28_109
*987 FILLER_28_121
*988 FILLER_28_131
*989 FILLER_28_138
*990 FILLER_28_141
*991 FILLER_28_148
*992 FILLER_28_15
*993 FILLER_28_173
*994 FILLER_28_185
*995 FILLER_28_193
*996 FILLER_28_197
*997 FILLER_28_209
*998 FILLER_28_236
*999 FILLER_28_242
*1000 FILLER_28_250
*1001 FILLER_28_253
*1002 FILLER_28_265
*1003 FILLER_28_27
*1004 FILLER_28_277
*1005 FILLER_28_289
*1006 FILLER_28_29
*1007 FILLER_28_3
*1008 FILLER_28_301
*1009 FILLER_28_307
*1010 FILLER_28_309
*1011 FILLER_28_321
*1012 FILLER_28_333
*1013 FILLER_28_345
*1014 FILLER_28_357
*1015 FILLER_28_363
*1016 FILLER_28_365
*1017 FILLER_28_377
*1018 FILLER_28_389
*1019 FILLER_28_401
*1020 FILLER_28_41
*1021 FILLER_28_53
*1022 FILLER_28_58
*1023 FILLER_28_70
*1024 FILLER_28_82
*1025 FILLER_28_85
*1026 FILLER_28_97
*1027 FILLER_29_105
*1028 FILLER_29_111
*1029 FILLER_29_113
*1030 FILLER_29_125
*1031 FILLER_29_137
*1032 FILLER_29_143
*1033 FILLER_29_149
*1034 FILLER_29_15
*1035 FILLER_29_153
*1036 FILLER_29_159
*1037 FILLER_29_167
*1038 FILLER_29_169
*1039 FILLER_29_173
*1040 FILLER_29_185
*1041 FILLER_29_197
*1042 FILLER_29_209
*1043 FILLER_29_221
*1044 FILLER_29_225
*1045 FILLER_29_230
*1046 FILLER_29_236
*1047 FILLER_29_248
*1048 FILLER_29_260
*1049 FILLER_29_27
*1050 FILLER_29_272
*1051 FILLER_29_281
*1052 FILLER_29_293
*1053 FILLER_29_3
*1054 FILLER_29_305
*1055 FILLER_29_317
*1056 FILLER_29_329
*1057 FILLER_29_335
*1058 FILLER_29_337
*1059 FILLER_29_349
*1060 FILLER_29_361
*1061 FILLER_29_373
*1062 FILLER_29_385
*1063 FILLER_29_39
*1064 FILLER_29_391
*1065 FILLER_29_393
*1066 FILLER_29_405
*1067 FILLER_29_51
*1068 FILLER_29_55
*1069 FILLER_29_57
*1070 FILLER_29_69
*1071 FILLER_29_81
*1072 FILLER_29_93
*1073 FILLER_2_109
*1074 FILLER_2_121
*1075 FILLER_2_133
*1076 FILLER_2_139
*1077 FILLER_2_141
*1078 FILLER_2_15
*1079 FILLER_2_153
*1080 FILLER_2_165
*1081 FILLER_2_177
*1082 FILLER_2_189
*1083 FILLER_2_195
*1084 FILLER_2_197
*1085 FILLER_2_209
*1086 FILLER_2_221
*1087 FILLER_2_233
*1088 FILLER_2_245
*1089 FILLER_2_251
*1090 FILLER_2_253
*1091 FILLER_2_265
*1092 FILLER_2_27
*1093 FILLER_2_277
*1094 FILLER_2_289
*1095 FILLER_2_29
*1096 FILLER_2_3
*1097 FILLER_2_301
*1098 FILLER_2_307
*1099 FILLER_2_309
*1100 FILLER_2_321
*1101 FILLER_2_333
*1102 FILLER_2_345
*1103 FILLER_2_357
*1104 FILLER_2_363
*1105 FILLER_2_365
*1106 FILLER_2_377
*1107 FILLER_2_389
*1108 FILLER_2_401
*1109 FILLER_2_41
*1110 FILLER_2_53
*1111 FILLER_2_65
*1112 FILLER_2_77
*1113 FILLER_2_83
*1114 FILLER_2_85
*1115 FILLER_2_97
*1116 FILLER_30_109
*1117 FILLER_30_121
*1118 FILLER_30_133
*1119 FILLER_30_139
*1120 FILLER_30_141
*1121 FILLER_30_15
*1122 FILLER_30_153
*1123 FILLER_30_165
*1124 FILLER_30_177
*1125 FILLER_30_189
*1126 FILLER_30_195
*1127 FILLER_30_197
*1128 FILLER_30_209
*1129 FILLER_30_221
*1130 FILLER_30_233
*1131 FILLER_30_245
*1132 FILLER_30_251
*1133 FILLER_30_253
*1134 FILLER_30_265
*1135 FILLER_30_27
*1136 FILLER_30_277
*1137 FILLER_30_289
*1138 FILLER_30_29
*1139 FILLER_30_3
*1140 FILLER_30_301
*1141 FILLER_30_307
*1142 FILLER_30_309
*1143 FILLER_30_321
*1144 FILLER_30_333
*1145 FILLER_30_345
*1146 FILLER_30_357
*1147 FILLER_30_363
*1148 FILLER_30_365
*1149 FILLER_30_377
*1150 FILLER_30_389
*1151 FILLER_30_401
*1152 FILLER_30_41
*1153 FILLER_30_53
*1154 FILLER_30_65
*1155 FILLER_30_77
*1156 FILLER_30_83
*1157 FILLER_30_85
*1158 FILLER_30_97
*1159 FILLER_31_105
*1160 FILLER_31_111
*1161 FILLER_31_113
*1162 FILLER_31_125
*1163 FILLER_31_137
*1164 FILLER_31_149
*1165 FILLER_31_15
*1166 FILLER_31_161
*1167 FILLER_31_167
*1168 FILLER_31_169
*1169 FILLER_31_181
*1170 FILLER_31_193
*1171 FILLER_31_205
*1172 FILLER_31_217
*1173 FILLER_31_223
*1174 FILLER_31_225
*1175 FILLER_31_237
*1176 FILLER_31_249
*1177 FILLER_31_261
*1178 FILLER_31_27
*1179 FILLER_31_273
*1180 FILLER_31_279
*1181 FILLER_31_281
*1182 FILLER_31_293
*1183 FILLER_31_3
*1184 FILLER_31_305
*1185 FILLER_31_317
*1186 FILLER_31_329
*1187 FILLER_31_335
*1188 FILLER_31_337
*1189 FILLER_31_349
*1190 FILLER_31_361
*1191 FILLER_31_373
*1192 FILLER_31_385
*1193 FILLER_31_39
*1194 FILLER_31_391
*1195 FILLER_31_393
*1196 FILLER_31_405
*1197 FILLER_31_51
*1198 FILLER_31_55
*1199 FILLER_31_57
*1200 FILLER_31_69
*1201 FILLER_31_81
*1202 FILLER_31_93
*1203 FILLER_32_109
*1204 FILLER_32_121
*1205 FILLER_32_133
*1206 FILLER_32_139
*1207 FILLER_32_141
*1208 FILLER_32_15
*1209 FILLER_32_153
*1210 FILLER_32_165
*1211 FILLER_32_177
*1212 FILLER_32_189
*1213 FILLER_32_195
*1214 FILLER_32_197
*1215 FILLER_32_209
*1216 FILLER_32_221
*1217 FILLER_32_233
*1218 FILLER_32_245
*1219 FILLER_32_251
*1220 FILLER_32_253
*1221 FILLER_32_265
*1222 FILLER_32_27
*1223 FILLER_32_277
*1224 FILLER_32_289
*1225 FILLER_32_29
*1226 FILLER_32_3
*1227 FILLER_32_301
*1228 FILLER_32_307
*1229 FILLER_32_309
*1230 FILLER_32_321
*1231 FILLER_32_333
*1232 FILLER_32_345
*1233 FILLER_32_357
*1234 FILLER_32_363
*1235 FILLER_32_365
*1236 FILLER_32_377
*1237 FILLER_32_389
*1238 FILLER_32_401
*1239 FILLER_32_41
*1240 FILLER_32_53
*1241 FILLER_32_65
*1242 FILLER_32_77
*1243 FILLER_32_83
*1244 FILLER_32_85
*1245 FILLER_32_97
*1246 FILLER_33_105
*1247 FILLER_33_111
*1248 FILLER_33_113
*1249 FILLER_33_125
*1250 FILLER_33_137
*1251 FILLER_33_149
*1252 FILLER_33_15
*1253 FILLER_33_161
*1254 FILLER_33_167
*1255 FILLER_33_169
*1256 FILLER_33_181
*1257 FILLER_33_193
*1258 FILLER_33_205
*1259 FILLER_33_217
*1260 FILLER_33_223
*1261 FILLER_33_225
*1262 FILLER_33_237
*1263 FILLER_33_249
*1264 FILLER_33_261
*1265 FILLER_33_27
*1266 FILLER_33_273
*1267 FILLER_33_279
*1268 FILLER_33_281
*1269 FILLER_33_293
*1270 FILLER_33_3
*1271 FILLER_33_305
*1272 FILLER_33_317
*1273 FILLER_33_329
*1274 FILLER_33_335
*1275 FILLER_33_337
*1276 FILLER_33_349
*1277 FILLER_33_361
*1278 FILLER_33_373
*1279 FILLER_33_385
*1280 FILLER_33_39
*1281 FILLER_33_391
*1282 FILLER_33_393
*1283 FILLER_33_405
*1284 FILLER_33_51
*1285 FILLER_33_55
*1286 FILLER_33_57
*1287 FILLER_33_69
*1288 FILLER_33_81
*1289 FILLER_33_93
*1290 FILLER_34_109
*1291 FILLER_34_121
*1292 FILLER_34_133
*1293 FILLER_34_139
*1294 FILLER_34_141
*1295 FILLER_34_15
*1296 FILLER_34_153
*1297 FILLER_34_165
*1298 FILLER_34_177
*1299 FILLER_34_189
*1300 FILLER_34_195
*1301 FILLER_34_197
*1302 FILLER_34_209
*1303 FILLER_34_221
*1304 FILLER_34_233
*1305 FILLER_34_245
*1306 FILLER_34_251
*1307 FILLER_34_253
*1308 FILLER_34_265
*1309 FILLER_34_27
*1310 FILLER_34_277
*1311 FILLER_34_289
*1312 FILLER_34_29
*1313 FILLER_34_3
*1314 FILLER_34_301
*1315 FILLER_34_307
*1316 FILLER_34_309
*1317 FILLER_34_321
*1318 FILLER_34_333
*1319 FILLER_34_345
*1320 FILLER_34_357
*1321 FILLER_34_363
*1322 FILLER_34_365
*1323 FILLER_34_377
*1324 FILLER_34_389
*1325 FILLER_34_401
*1326 FILLER_34_41
*1327 FILLER_34_53
*1328 FILLER_34_65
*1329 FILLER_34_77
*1330 FILLER_34_83
*1331 FILLER_34_85
*1332 FILLER_34_97
*1333 FILLER_35_105
*1334 FILLER_35_111
*1335 FILLER_35_113
*1336 FILLER_35_125
*1337 FILLER_35_137
*1338 FILLER_35_149
*1339 FILLER_35_15
*1340 FILLER_35_161
*1341 FILLER_35_167
*1342 FILLER_35_169
*1343 FILLER_35_181
*1344 FILLER_35_193
*1345 FILLER_35_205
*1346 FILLER_35_217
*1347 FILLER_35_222
*1348 FILLER_35_225
*1349 FILLER_35_247
*1350 FILLER_35_253
*1351 FILLER_35_259
*1352 FILLER_35_27
*1353 FILLER_35_271
*1354 FILLER_35_279
*1355 FILLER_35_281
*1356 FILLER_35_293
*1357 FILLER_35_3
*1358 FILLER_35_305
*1359 FILLER_35_317
*1360 FILLER_35_329
*1361 FILLER_35_335
*1362 FILLER_35_337
*1363 FILLER_35_349
*1364 FILLER_35_361
*1365 FILLER_35_373
*1366 FILLER_35_385
*1367 FILLER_35_39
*1368 FILLER_35_391
*1369 FILLER_35_393
*1370 FILLER_35_405
*1371 FILLER_35_51
*1372 FILLER_35_55
*1373 FILLER_35_57
*1374 FILLER_35_69
*1375 FILLER_35_81
*1376 FILLER_35_93
*1377 FILLER_36_109
*1378 FILLER_36_121
*1379 FILLER_36_133
*1380 FILLER_36_139
*1381 FILLER_36_141
*1382 FILLER_36_15
*1383 FILLER_36_153
*1384 FILLER_36_165
*1385 FILLER_36_177
*1386 FILLER_36_189
*1387 FILLER_36_195
*1388 FILLER_36_197
*1389 FILLER_36_209
*1390 FILLER_36_217
*1391 FILLER_36_221
*1392 FILLER_36_243
*1393 FILLER_36_250
*1394 FILLER_36_253
*1395 FILLER_36_257
*1396 FILLER_36_269
*1397 FILLER_36_27
*1398 FILLER_36_281
*1399 FILLER_36_29
*1400 FILLER_36_293
*1401 FILLER_36_3
*1402 FILLER_36_305
*1403 FILLER_36_309
*1404 FILLER_36_321
*1405 FILLER_36_333
*1406 FILLER_36_345
*1407 FILLER_36_357
*1408 FILLER_36_363
*1409 FILLER_36_365
*1410 FILLER_36_377
*1411 FILLER_36_389
*1412 FILLER_36_401
*1413 FILLER_36_41
*1414 FILLER_36_53
*1415 FILLER_36_65
*1416 FILLER_36_77
*1417 FILLER_36_83
*1418 FILLER_36_85
*1419 FILLER_36_97
*1420 FILLER_37_105
*1421 FILLER_37_111
*1422 FILLER_37_113
*1423 FILLER_37_125
*1424 FILLER_37_137
*1425 FILLER_37_149
*1426 FILLER_37_15
*1427 FILLER_37_161
*1428 FILLER_37_167
*1429 FILLER_37_169
*1430 FILLER_37_181
*1431 FILLER_37_193
*1432 FILLER_37_205
*1433 FILLER_37_211
*1434 FILLER_37_215
*1435 FILLER_37_222
*1436 FILLER_37_225
*1437 FILLER_37_248
*1438 FILLER_37_255
*1439 FILLER_37_261
*1440 FILLER_37_27
*1441 FILLER_37_273
*1442 FILLER_37_279
*1443 FILLER_37_281
*1444 FILLER_37_293
*1445 FILLER_37_3
*1446 FILLER_37_305
*1447 FILLER_37_317
*1448 FILLER_37_329
*1449 FILLER_37_335
*1450 FILLER_37_337
*1451 FILLER_37_349
*1452 FILLER_37_361
*1453 FILLER_37_373
*1454 FILLER_37_385
*1455 FILLER_37_39
*1456 FILLER_37_391
*1457 FILLER_37_393
*1458 FILLER_37_405
*1459 FILLER_37_51
*1460 FILLER_37_55
*1461 FILLER_37_57
*1462 FILLER_37_69
*1463 FILLER_37_81
*1464 FILLER_37_93
*1465 FILLER_38_109
*1466 FILLER_38_121
*1467 FILLER_38_133
*1468 FILLER_38_139
*1469 FILLER_38_141
*1470 FILLER_38_153
*1471 FILLER_38_165
*1472 FILLER_38_177
*1473 FILLER_38_189
*1474 FILLER_38_19
*1475 FILLER_38_195
*1476 FILLER_38_197
*1477 FILLER_38_209
*1478 FILLER_38_215
*1479 FILLER_38_218
*1480 FILLER_38_225
*1481 FILLER_38_250
*1482 FILLER_38_253
*1483 FILLER_38_27
*1484 FILLER_38_276
*1485 FILLER_38_288
*1486 FILLER_38_29
*1487 FILLER_38_3
*1488 FILLER_38_300
*1489 FILLER_38_309
*1490 FILLER_38_321
*1491 FILLER_38_333
*1492 FILLER_38_345
*1493 FILLER_38_357
*1494 FILLER_38_363
*1495 FILLER_38_365
*1496 FILLER_38_377
*1497 FILLER_38_389
*1498 FILLER_38_401
*1499 FILLER_38_41
*1500 FILLER_38_53
*1501 FILLER_38_65
*1502 FILLER_38_7
*1503 FILLER_38_77
*1504 FILLER_38_83
*1505 FILLER_38_85
*1506 FILLER_38_97
*1507 FILLER_39_105
*1508 FILLER_39_111
*1509 FILLER_39_113
*1510 FILLER_39_125
*1511 FILLER_39_137
*1512 FILLER_39_149
*1513 FILLER_39_15
*1514 FILLER_39_161
*1515 FILLER_39_167
*1516 FILLER_39_169
*1517 FILLER_39_181
*1518 FILLER_39_193
*1519 FILLER_39_205
*1520 FILLER_39_217
*1521 FILLER_39_223
*1522 FILLER_39_225
*1523 FILLER_39_231
*1524 FILLER_39_253
*1525 FILLER_39_260
*1526 FILLER_39_266
*1527 FILLER_39_27
*1528 FILLER_39_278
*1529 FILLER_39_281
*1530 FILLER_39_293
*1531 FILLER_39_3
*1532 FILLER_39_305
*1533 FILLER_39_317
*1534 FILLER_39_329
*1535 FILLER_39_335
*1536 FILLER_39_337
*1537 FILLER_39_349
*1538 FILLER_39_361
*1539 FILLER_39_373
*1540 FILLER_39_385
*1541 FILLER_39_39
*1542 FILLER_39_391
*1543 FILLER_39_393
*1544 FILLER_39_405
*1545 FILLER_39_51
*1546 FILLER_39_55