*SPEF "ieee 1481-1999"
*DESIGN "grid_io_left"
*DATE "11:11:11 Fri 11 11, 1111"
*VENDOR "OpenRCX"
*PROGRAM "Parallel Extraction"
*VERSION "1.0"
*DESIGN_FLOW "NAME_SCOPE LOCAL" "PIN_CAP NONE"
*DIVIDER /
*DELIMITER :
*BUS_DELIMITER []
*T_UNIT 1 NS
*C_UNIT 1 PF
*R_UNIT 1 OHM
*L_UNIT 1 HENRY

*NAME_MAP
*1 ccff_head
*2 ccff_tail
*3 gfpga_pad_GPIO_PAD[0]
*4 gfpga_pad_GPIO_PAD[1]
*5 gfpga_pad_GPIO_PAD[2]
*6 gfpga_pad_GPIO_PAD[3]
*7 gfpga_pad_GPIO_PAD[4]
*8 gfpga_pad_GPIO_PAD[5]
*9 gfpga_pad_GPIO_PAD[6]
*10 gfpga_pad_GPIO_PAD[7]
*11 pReset
*12 prog_clk
*13 right_width_0_height_0_subtile_0__pin_inpad_0_
*14 right_width_0_height_0_subtile_0__pin_outpad_0_
*15 right_width_0_height_0_subtile_1__pin_inpad_0_
*16 right_width_0_height_0_subtile_1__pin_outpad_0_
*17 right_width_0_height_0_subtile_2__pin_inpad_0_
*18 right_width_0_height_0_subtile_2__pin_outpad_0_
*19 right_width_0_height_0_subtile_3__pin_inpad_0_
*20 right_width_0_height_0_subtile_3__pin_outpad_0_
*21 right_width_0_height_0_subtile_4__pin_inpad_0_
*22 right_width_0_height_0_subtile_4__pin_outpad_0_
*23 right_width_0_height_0_subtile_5__pin_inpad_0_
*24 right_width_0_height_0_subtile_5__pin_outpad_0_
*25 right_width_0_height_0_subtile_6__pin_inpad_0_
*26 right_width_0_height_0_subtile_6__pin_outpad_0_
*27 right_width_0_height_0_subtile_7__pin_inpad_0_
*28 right_width_0_height_0_subtile_7__pin_outpad_0_
*31 _00_
*32 _01_
*33 _02_
*34 _03_
*35 _04_
*36 _05_
*37 _06_
*38 _07_
*39 _08_
*40 _09_
*41 _10_
*42 _11_
*43 _12_
*44 _13_
*45 _14_
*46 _15_
*47 _16_
*48 _17_
*49 _18_
*50 _19_
*51 _20_
*52 _21_
*53 _22_
*54 _23_
*55 _24_
*56 _25_
*57 _26_
*58 _27_
*59 _28_
*60 _29_
*61 _30_
*62 _31_
*63 logical_tile_io_mode_io__0\.ccff_tail
*64 logical_tile_io_mode_io__1\.ccff_tail
*65 logical_tile_io_mode_io__2\.ccff_tail
*66 logical_tile_io_mode_io__3\.ccff_tail
*67 logical_tile_io_mode_io__4\.ccff_tail
*68 logical_tile_io_mode_io__5\.ccff_tail
*69 logical_tile_io_mode_io__6\.ccff_tail
*70 net1
*71 net10
*72 net11
*73 net2
*74 net3
*75 net4
*76 net5
*77 net6
*78 net7
*79 net8
*80 net9
*81 ANTENNA__33__A
*82 ANTENNA__34__A
*83 ANTENNA__42__A
*84 ANTENNA__43__A
*85 ANTENNA__56__A
*86 ANTENNA__57__A
*87 ANTENNA__58__A
*88 ANTENNA__59__A
*89 ANTENNA__60__A
*90 ANTENNA__61__A
*91 ANTENNA__62__A
*92 ANTENNA__63__A
*93 ANTENNA__64__CLK
*94 ANTENNA__65__CLK
*95 ANTENNA__66__CLK
*96 ANTENNA__67__CLK
*97 ANTENNA__68__CLK
*98 ANTENNA__69__CLK
*99 ANTENNA__69__D
*100 ANTENNA__70__CLK
*101 ANTENNA__71__CLK
*102 ANTENNA__72__A
*103 ANTENNA__73__A
*104 ANTENNA__76__A
*105 ANTENNA__79__A
*106 ANTENNA__83__A
*107 ANTENNA__84__A
*108 ANTENNA__85__A
*109 ANTENNA_input10_A
*110 ANTENNA_input1_A
*111 ANTENNA_input2_A
*112 ANTENNA_input3_A
*113 ANTENNA_input4_A
*114 ANTENNA_input5_A
*115 ANTENNA_input6_A
*116 ANTENNA_input7_A
*117 ANTENNA_input8_A
*118 ANTENNA_input9_A
*119 ANTENNA_output11_A
*120 FILLER_0_109
*121 FILLER_0_113
*122 FILLER_0_118
*123 FILLER_0_124
*124 FILLER_0_136
*125 FILLER_0_14
*126 FILLER_0_141
*127 FILLER_0_153
*128 FILLER_0_165
*129 FILLER_0_169
*130 FILLER_0_174
*131 FILLER_0_180
*132 FILLER_0_192
*133 FILLER_0_197
*134 FILLER_0_209
*135 FILLER_0_221
*136 FILLER_0_225
*137 FILLER_0_237
*138 FILLER_0_249
*139 FILLER_0_253
*140 FILLER_0_26
*141 FILLER_0_265
*142 FILLER_0_277
*143 FILLER_0_281
*144 FILLER_0_29
*145 FILLER_0_293
*146 FILLER_0_3
*147 FILLER_0_305
*148 FILLER_0_309
*149 FILLER_0_321
*150 FILLER_0_333
*151 FILLER_0_337
*152 FILLER_0_349
*153 FILLER_0_361
*154 FILLER_0_365
*155 FILLER_0_377
*156 FILLER_0_389
*157 FILLER_0_393
*158 FILLER_0_405
*159 FILLER_0_41
*160 FILLER_0_53
*161 FILLER_0_57
*162 FILLER_0_69
*163 FILLER_0_8
*164 FILLER_0_81
*165 FILLER_0_85
*166 FILLER_0_97
*167 FILLER_10_109
*168 FILLER_10_121
*169 FILLER_10_133
*170 FILLER_10_139
*171 FILLER_10_141
*172 FILLER_10_15
*173 FILLER_10_153
*174 FILLER_10_165
*175 FILLER_10_177
*176 FILLER_10_189
*177 FILLER_10_195
*178 FILLER_10_197
*179 FILLER_10_209
*180 FILLER_10_221
*181 FILLER_10_233
*182 FILLER_10_245
*183 FILLER_10_251
*184 FILLER_10_253
*185 FILLER_10_265
*186 FILLER_10_27
*187 FILLER_10_277
*188 FILLER_10_289
*189 FILLER_10_29
*190 FILLER_10_3
*191 FILLER_10_301
*192 FILLER_10_307
*193 FILLER_10_309
*194 FILLER_10_321
*195 FILLER_10_333
*196 FILLER_10_345
*197 FILLER_10_357
*198 FILLER_10_363
*199 FILLER_10_365
*200 FILLER_10_377
*201 FILLER_10_389
*202 FILLER_10_401
*203 FILLER_10_41
*204 FILLER_10_53
*205 FILLER_10_65
*206 FILLER_10_77
*207 FILLER_10_83
*208 FILLER_10_85
*209 FILLER_10_97
*210 FILLER_11_105
*211 FILLER_11_111
*212 FILLER_11_113
*213 FILLER_11_125
*214 FILLER_11_137
*215 FILLER_11_149
*216 FILLER_11_15
*217 FILLER_11_161
*218 FILLER_11_167
*219 FILLER_11_169
*220 FILLER_11_181
*221 FILLER_11_193
*222 FILLER_11_205
*223 FILLER_11_217
*224 FILLER_11_223
*225 FILLER_11_225
*226 FILLER_11_237
*227 FILLER_11_249
*228 FILLER_11_261
*229 FILLER_11_27
*230 FILLER_11_273
*231 FILLER_11_279
*232 FILLER_11_281
*233 FILLER_11_293
*234 FILLER_11_3
*235 FILLER_11_305
*236 FILLER_11_317
*237 FILLER_11_329
*238 FILLER_11_335
*239 FILLER_11_337
*240 FILLER_11_349
*241 FILLER_11_361
*242 FILLER_11_373
*243 FILLER_11_385
*244 FILLER_11_39
*245 FILLER_11_391
*246 FILLER_11_393
*247 FILLER_11_405
*248 FILLER_11_51
*249 FILLER_11_55
*250 FILLER_11_57
*251 FILLER_11_69
*252 FILLER_11_81
*253 FILLER_11_93
*254 FILLER_12_109
*255 FILLER_12_121
*256 FILLER_12_133
*257 FILLER_12_139
*258 FILLER_12_141
*259 FILLER_12_15
*260 FILLER_12_153
*261 FILLER_12_165
*262 FILLER_12_177
*263 FILLER_12_189
*264 FILLER_12_195
*265 FILLER_12_197
*266 FILLER_12_209
*267 FILLER_12_221
*268 FILLER_12_233
*269 FILLER_12_245
*270 FILLER_12_251
*271 FILLER_12_253
*272 FILLER_12_265
*273 FILLER_12_27
*274 FILLER_12_277
*275 FILLER_12_289
*276 FILLER_12_29
*277 FILLER_12_3
*278 FILLER_12_301
*279 FILLER_12_307
*280 FILLER_12_309
*281 FILLER_12_321
*282 FILLER_12_333
*283 FILLER_12_345
*284 FILLER_12_357
*285 FILLER_12_363
*286 FILLER_12_365
*287 FILLER_12_377
*288 FILLER_12_389
*289 FILLER_12_401
*290 FILLER_12_41
*291 FILLER_12_53
*292 FILLER_12_65
*293 FILLER_12_77
*294 FILLER_12_83
*295 FILLER_12_85
*296 FILLER_12_97
*297 FILLER_13_105
*298 FILLER_13_111
*299 FILLER_13_113
*300 FILLER_13_125
*301 FILLER_13_137
*302 FILLER_13_149
*303 FILLER_13_15
*304 FILLER_13_161
*305 FILLER_13_167
*306 FILLER_13_169
*307 FILLER_13_181
*308 FILLER_13_193
*309 FILLER_13_205
*310 FILLER_13_217
*311 FILLER_13_223
*312 FILLER_13_225
*313 FILLER_13_237
*314 FILLER_13_249
*315 FILLER_13_261
*316 FILLER_13_27
*317 FILLER_13_273
*318 FILLER_13_279
*319 FILLER_13_281
*320 FILLER_13_293
*321 FILLER_13_3
*322 FILLER_13_305
*323 FILLER_13_317
*324 FILLER_13_329
*325 FILLER_13_335
*326 FILLER_13_337
*327 FILLER_13_349
*328 FILLER_13_361
*329 FILLER_13_373
*330 FILLER_13_385
*331 FILLER_13_39
*332 FILLER_13_391
*333 FILLER_13_393
*334 FILLER_13_405
*335 FILLER_13_51
*336 FILLER_13_55
*337 FILLER_13_57
*338 FILLER_13_69
*339 FILLER_13_81
*340 FILLER_13_93
*341 FILLER_14_109
*342 FILLER_14_121
*343 FILLER_14_133
*344 FILLER_14_139
*345 FILLER_14_141
*346 FILLER_14_15
*347 FILLER_14_153
*348 FILLER_14_165
*349 FILLER_14_177
*350 FILLER_14_189
*351 FILLER_14_195
*352 FILLER_14_197
*353 FILLER_14_209
*354 FILLER_14_221
*355 FILLER_14_233
*356 FILLER_14_245
*357 FILLER_14_251
*358 FILLER_14_253
*359 FILLER_14_265
*360 FILLER_14_27
*361 FILLER_14_277
*362 FILLER_14_289
*363 FILLER_14_29
*364 FILLER_14_3
*365 FILLER_14_301
*366 FILLER_14_307
*367 FILLER_14_309
*368 FILLER_14_321
*369 FILLER_14_333
*370 FILLER_14_345
*371 FILLER_14_357
*372 FILLER_14_363
*373 FILLER_14_365
*374 FILLER_14_377
*375 FILLER_14_389
*376 FILLER_14_401
*377 FILLER_14_41
*378 FILLER_14_53
*379 FILLER_14_65
*380 FILLER_14_77
*381 FILLER_14_83
*382 FILLER_14_85
*383 FILLER_14_97
*384 FILLER_15_110
*385 FILLER_15_113
*386 FILLER_15_125
*387 FILLER_15_137
*388 FILLER_15_149
*389 FILLER_15_15
*390 FILLER_15_161
*391 FILLER_15_167
*392 FILLER_15_169
*393 FILLER_15_181
*394 FILLER_15_193
*395 FILLER_15_205
*396 FILLER_15_217
*397 FILLER_15_223
*398 FILLER_15_225
*399 FILLER_15_237
*400 FILLER_15_249
*401 FILLER_15_261
*402 FILLER_15_27
*403 FILLER_15_273
*404 FILLER_15_279
*405 FILLER_15_281
*406 FILLER_15_293
*407 FILLER_15_3
*408 FILLER_15_305
*409 FILLER_15_317
*410 FILLER_15_329
*411 FILLER_15_335
*412 FILLER_15_337
*413 FILLER_15_349
*414 FILLER_15_361
*415 FILLER_15_373
*416 FILLER_15_385
*417 FILLER_15_39
*418 FILLER_15_391
*419 FILLER_15_393
*420 FILLER_15_405
*421 FILLER_15_51
*422 FILLER_15_55
*423 FILLER_15_57
*424 FILLER_15_69
*425 FILLER_15_81
*426 FILLER_16_120
*427 FILLER_16_132
*428 FILLER_16_141
*429 FILLER_16_15
*430 FILLER_16_153
*431 FILLER_16_165
*432 FILLER_16_177
*433 FILLER_16_189
*434 FILLER_16_195
*435 FILLER_16_197
*436 FILLER_16_209
*437 FILLER_16_221
*438 FILLER_16_233
*439 FILLER_16_245
*440 FILLER_16_251
*441 FILLER_16_253
*442 FILLER_16_265
*443 FILLER_16_27
*444 FILLER_16_277
*445 FILLER_16_289
*446 FILLER_16_29
*447 FILLER_16_3
*448 FILLER_16_301
*449 FILLER_16_307
*450 FILLER_16_309
*451 FILLER_16_321
*452 FILLER_16_333
*453 FILLER_16_345
*454 FILLER_16_357
*455 FILLER_16_363
*456 FILLER_16_365
*457 FILLER_16_377
*458 FILLER_16_389
*459 FILLER_16_401
*460 FILLER_16_41
*461 FILLER_16_53
*462 FILLER_16_65
*463 FILLER_16_77
*464 FILLER_16_83
*465 FILLER_16_85
*466 FILLER_16_91
*467 FILLER_16_95
*468 FILLER_17_102
*469 FILLER_17_110
*470 FILLER_17_113
*471 FILLER_17_125
*472 FILLER_17_137
*473 FILLER_17_149
*474 FILLER_17_15
*475 FILLER_17_161
*476 FILLER_17_167
*477 FILLER_17_169
*478 FILLER_17_181
*479 FILLER_17_193
*480 FILLER_17_205
*481 FILLER_17_217
*482 FILLER_17_223
*483 FILLER_17_225
*484 FILLER_17_237
*485 FILLER_17_249
*486 FILLER_17_261
*487 FILLER_17_27
*488 FILLER_17_273
*489 FILLER_17_279
*490 FILLER_17_281
*491 FILLER_17_293
*492 FILLER_17_3
*493 FILLER_17_305
*494 FILLER_17_317
*495 FILLER_17_329
*496 FILLER_17_335
*497 FILLER_17_337
*498 FILLER_17_349
*499 FILLER_17_361
*500 FILLER_17_373
*501 FILLER_17_385
*502 FILLER_17_39
*503 FILLER_17_391
*504 FILLER_17_393
*505 FILLER_17_405
*506 FILLER_17_51
*507 FILLER_17_55
*508 FILLER_17_57
*509 FILLER_17_69
*510 FILLER_17_81
*511 FILLER_17_89
*512 FILLER_17_95
*513 FILLER_18_109
*514 FILLER_18_121
*515 FILLER_18_133
*516 FILLER_18_139
*517 FILLER_18_141
*518 FILLER_18_15
*519 FILLER_18_153
*520 FILLER_18_165
*521 FILLER_18_177
*522 FILLER_18_189
*523 FILLER_18_195
*524 FILLER_18_197
*525 FILLER_18_209
*526 FILLER_18_221
*527 FILLER_18_233
*528 FILLER_18_245
*529 FILLER_18_251
*530 FILLER_18_253
*531 FILLER_18_265
*532 FILLER_18_27
*533 FILLER_18_277
*534 FILLER_18_289
*535 FILLER_18_29
*536 FILLER_18_3
*537 FILLER_18_301
*538 FILLER_18_307
*539 FILLER_18_309
*540 FILLER_18_321
*541 FILLER_18_333
*542 FILLER_18_345
*543 FILLER_18_357
*544 FILLER_18_363
*545 FILLER_18_365
*546 FILLER_18_377
*547 FILLER_18_389
*548 FILLER_18_401
*549 FILLER_18_41
*550 FILLER_18_53
*551 FILLER_18_65
*552 FILLER_18_77
*553 FILLER_18_83
*554 FILLER_18_85
*555 FILLER_18_97
*556 FILLER_19_105
*557 FILLER_19_111
*558 FILLER_19_113
*559 FILLER_19_125
*560 FILLER_19_137
*561 FILLER_19_149
*562 FILLER_19_15
*563 FILLER_19_161
*564 FILLER_19_167
*565 FILLER_19_169
*566 FILLER_19_181
*567 FILLER_19_193
*568 FILLER_19_205
*569 FILLER_19_217
*570 FILLER_19_223
*571 FILLER_19_225
*572 FILLER_19_237
*573 FILLER_19_249
*574 FILLER_19_261
*575 FILLER_19_27
*576 FILLER_19_273
*577 FILLER_19_279
*578 FILLER_19_281
*579 FILLER_19_293
*580 FILLER_19_3
*581 FILLER_19_305
*582 FILLER_19_317
*583 FILLER_19_329
*584 FILLER_19_335
*585 FILLER_19_337
*586 FILLER_19_349
*587 FILLER_19_361
*588 FILLER_19_373
*589 FILLER_19_385
*590 FILLER_19_39
*591 FILLER_19_391
*592 FILLER_19_393
*593 FILLER_19_405
*594 FILLER_19_51
*595 FILLER_19_55
*596 FILLER_19_57
*597 FILLER_19_69
*598 FILLER_19_81
*599 FILLER_19_93
*600 FILLER_1_105
*601 FILLER_1_111
*602 FILLER_1_113
*603 FILLER_1_125
*604 FILLER_1_137
*605 FILLER_1_149
*606 FILLER_1_15
*607 FILLER_1_161
*608 FILLER_1_167
*609 FILLER_1_169
*610 FILLER_1_181
*611 FILLER_1_193
*612 FILLER_1_205
*613 FILLER_1_217
*614 FILLER_1_223
*615 FILLER_1_225
*616 FILLER_1_237
*617 FILLER_1_249
*618 FILLER_1_261
*619 FILLER_1_27
*620 FILLER_1_273
*621 FILLER_1_279
*622 FILLER_1_281
*623 FILLER_1_293
*624 FILLER_1_3
*625 FILLER_1_305
*626 FILLER_1_317
*627 FILLER_1_329
*628 FILLER_1_335
*629 FILLER_1_337
*630 FILLER_1_349
*631 FILLER_1_361
*632 FILLER_1_373
*633 FILLER_1_385
*634 FILLER_1_39
*635 FILLER_1_391
*636 FILLER_1_393
*637 FILLER_1_405
*638 FILLER_1_51
*639 FILLER_1_55
*640 FILLER_1_57
*641 FILLER_1_69
*642 FILLER_1_81
*643 FILLER_1_93
*644 FILLER_20_109
*645 FILLER_20_121
*646 FILLER_20_133
*647 FILLER_20_139
*648 FILLER_20_141
*649 FILLER_20_15
*650 FILLER_20_153
*651 FILLER_20_165
*652 FILLER_20_177
*653 FILLER_20_189
*654 FILLER_20_195
*655 FILLER_20_197
*656 FILLER_20_209
*657 FILLER_20_221
*658 FILLER_20_233
*659 FILLER_20_245
*660 FILLER_20_251
*661 FILLER_20_253
*662 FILLER_20_265
*663 FILLER_20_27
*664 FILLER_20_277
*665 FILLER_20_289
*666 FILLER_20_29
*667 FILLER_20_3
*668 FILLER_20_301
*669 FILLER_20_307
*670 FILLER_20_309
*671 FILLER_20_321
*672 FILLER_20_333
*673 FILLER_20_345
*674 FILLER_20_357
*675 FILLER_20_363
*676 FILLER_20_365
*677 FILLER_20_377
*678 FILLER_20_389
*679 FILLER_20_401
*680 FILLER_20_41
*681 FILLER_20_53
*682 FILLER_20_65
*683 FILLER_20_77
*684 FILLER_20_83
*685 FILLER_20_85
*686 FILLER_20_97
*687 FILLER_21_105
*688 FILLER_21_111
*689 FILLER_21_113
*690 FILLER_21_118
*691 FILLER_21_130
*692 FILLER_21_142
*693 FILLER_21_15
*694 FILLER_21_154
*695 FILLER_21_166
*696 FILLER_21_169
*697 FILLER_21_181
*698 FILLER_21_193
*699 FILLER_21_205
*700 FILLER_21_217
*701 FILLER_21_223
*702 FILLER_21_225
*703 FILLER_21_237
*704 FILLER_21_249
*705 FILLER_21_261
*706 FILLER_21_27
*707 FILLER_21_273
*708 FILLER_21_279
*709 FILLER_21_281
*710 FILLER_21_293
*711 FILLER_21_3
*712 FILLER_21_305
*713 FILLER_21_317
*714 FILLER_21_329
*715 FILLER_21_335
*716 FILLER_21_337
*717 FILLER_21_349
*718 FILLER_21_361
*719 FILLER_21_373
*720 FILLER_21_385
*721 FILLER_21_39
*722 FILLER_21_391
*723 FILLER_21_393
*724 FILLER_21_405
*725 FILLER_21_51
*726 FILLER_21_55
*727 FILLER_21_57
*728 FILLER_21_69
*729 FILLER_21_81
*730 FILLER_21_93
*731 FILLER_22_100
*732 FILLER_22_106
*733 FILLER_22_128
*734 FILLER_22_141
*735 FILLER_22_15
*736 FILLER_22_153
*737 FILLER_22_156
*738 FILLER_22_189
*739 FILLER_22_195
*740 FILLER_22_197
*741 FILLER_22_209
*742 FILLER_22_221
*743 FILLER_22_233
*744 FILLER_22_245
*745 FILLER_22_251
*746 FILLER_22_253
*747 FILLER_22_265
*748 FILLER_22_27
*749 FILLER_22_277
*750 FILLER_22_289
*751 FILLER_22_29
*752 FILLER_22_3
*753 FILLER_22_301
*754 FILLER_22_307
*755 FILLER_22_309
*756 FILLER_22_321
*757 FILLER_22_333
*758 FILLER_22_345
*759 FILLER_22_357
*760 FILLER_22_363
*761 FILLER_22_365
*762 FILLER_22_377
*763 FILLER_22_389
*764 FILLER_22_401
*765 FILLER_22_41
*766 FILLER_22_53
*767 FILLER_22_65
*768 FILLER_22_77
*769 FILLER_22_83
*770 FILLER_22_85
*771 FILLER_22_91
*772 FILLER_22_94
*773 FILLER_23_103
*774 FILLER_23_110
*775 FILLER_23_113
*776 FILLER_23_136
*777 FILLER_23_142
*778 FILLER_23_15
*779 FILLER_23_150
*780 FILLER_23_154
*781 FILLER_23_162
*782 FILLER_23_165
*783 FILLER_23_169
*784 FILLER_23_174
*785 FILLER_23_180
*786 FILLER_23_202
*787 FILLER_23_208
*788 FILLER_23_220
*789 FILLER_23_225
*790 FILLER_23_237
*791 FILLER_23_249
*792 FILLER_23_261
*793 FILLER_23_27
*794 FILLER_23_273
*795 FILLER_23_279
*796 FILLER_23_281
*797 FILLER_23_293
*798 FILLER_23_3
*799 FILLER_23_305
*800 FILLER_23_317
*801 FILLER_23_329
*802 FILLER_23_335
*803 FILLER_23_337
*804 FILLER_23_349
*805 FILLER_23_361
*806 FILLER_23_373
*807 FILLER_23_385
*808 FILLER_23_39
*809 FILLER_23_391
*810 FILLER_23_393
*811 FILLER_23_405
*812 FILLER_23_51
*813 FILLER_23_55
*814 FILLER_23_57
*815 FILLER_23_69
*816 FILLER_23_93
*817 FILLER_23_99
*818 FILLER_24_117
*819 FILLER_24_123
*820 FILLER_24_135
*821 FILLER_24_139
*822 FILLER_24_141
*823 FILLER_24_15
*824 FILLER_24_163
*825 FILLER_24_170
*826 FILLER_24_185
*827 FILLER_24_193
*828 FILLER_24_197
*829 FILLER_24_209
*830 FILLER_24_221
*831 FILLER_24_233
*832 FILLER_24_245
*833 FILLER_24_251
*834 FILLER_24_253
*835 FILLER_24_265
*836 FILLER_24_27
*837 FILLER_24_277
*838 FILLER_24_289
*839 FILLER_24_29
*840 FILLER_24_3
*841 FILLER_24_301
*842 FILLER_24_307
*843 FILLER_24_309
*844 FILLER_24_321
*845 FILLER_24_333
*846 FILLER_24_345
*847 FILLER_24_357
*848 FILLER_24_363
*849 FILLER_24_365
*850 FILLER_24_377
*851 FILLER_24_389
*852 FILLER_24_401
*853 FILLER_24_41
*854 FILLER_24_53
*855 FILLER_24_65
*856 FILLER_24_77
*857 FILLER_24_83
*858 FILLER_24_85
*859 FILLER_24_92
*860 FILLER_24_96
*861 FILLER_25_100
*862 FILLER_25_106
*863 FILLER_25_113
*864 FILLER_25_118
*865 FILLER_25_124
*866 FILLER_25_136
*867 FILLER_25_148
*868 FILLER_25_15
*869 FILLER_25_160
*870 FILLER_25_169
*871 FILLER_25_181
*872 FILLER_25_193
*873 FILLER_25_205
*874 FILLER_25_217
*875 FILLER_25_223
*876 FILLER_25_225
*877 FILLER_25_237
*878 FILLER_25_249
*879 FILLER_25_261
*880 FILLER_25_27
*881 FILLER_25_273
*882 FILLER_25_279
*883 FILLER_25_281
*884 FILLER_25_293
*885 FILLER_25_3
*886 FILLER_25_305
*887 FILLER_25_317
*888 FILLER_25_329
*889 FILLER_25_335
*890 FILLER_25_337
*891 FILLER_25_349
*892 FILLER_25_361
*893 FILLER_25_373
*894 FILLER_25_385
*895 FILLER_25_39
*896 FILLER_25_391
*897 FILLER_25_393
*898 FILLER_25_405
*899 FILLER_25_51
*900 FILLER_25_55
*901 FILLER_25_57
*902 FILLER_25_69
*903 FILLER_25_77
*904 FILLER_26_101
*905 FILLER_26_113
*906 FILLER_26_125
*907 FILLER_26_137
*908 FILLER_26_141
*909 FILLER_26_15
*910 FILLER_26_153
*911 FILLER_26_165
*912 FILLER_26_177
*913 FILLER_26_189
*914 FILLER_26_195
*915 FILLER_26_197
*916 FILLER_26_209
*917 FILLER_26_221
*918 FILLER_26_233
*919 FILLER_26_245
*920 FILLER_26_251
*921 FILLER_26_253
*922 FILLER_26_265
*923 FILLER_26_27
*924 FILLER_26_277
*925 FILLER_26_289
*926 FILLER_26_29
*927 FILLER_26_3
*928 FILLER_26_301
*929 FILLER_26_307
*930 FILLER_26_309
*931 FILLER_26_321
*932 FILLER_26_333
*933 FILLER_26_345
*934 FILLER_26_357
*935 FILLER_26_363
*936 FILLER_26_365
*937 FILLER_26_377
*938 FILLER_26_389
*939 FILLER_26_395
*940 FILLER_26_398
*941 FILLER_26_405
*942 FILLER_26_41
*943 FILLER_26_53
*944 FILLER_26_65
*945 FILLER_26_77
*946 FILLER_26_83
*947 FILLER_26_85
*948 FILLER_26_91
*949 FILLER_26_95
*950 FILLER_27_110
*951 FILLER_27_113
*952 FILLER_27_125
*953 FILLER_27_137
*954 FILLER_27_149
*955 FILLER_27_15
*956 FILLER_27_161
*957 FILLER_27_167
*958 FILLER_27_169
*959 FILLER_27_181
*960 FILLER_27_193
*961 FILLER_27_205
*962 FILLER_27_210
*963 FILLER_27_216
*964 FILLER_27_225
*965 FILLER_27_237
*966 FILLER_27_249
*967 FILLER_27_261
*968 FILLER_27_27
*969 FILLER_27_273
*970 FILLER_27_279
*971 FILLER_27_281
*972 FILLER_27_293
*973 FILLER_27_3
*974 FILLER_27_305
*975 FILLER_27_317
*976 FILLER_27_329
*977 FILLER_27_335
*978 FILLER_27_337
*979 FILLER_27_349
*980 FILLER_27_361
*981 FILLER_27_373
*982 FILLER_27_385
*983 FILLER_27_39
*984 FILLER_27_391
*985 FILLER_27_393
*986 FILLER_27_405
*987 FILLER_27_54
*988 FILLER_27_57
*989 FILLER_27_62
*990 FILLER_27_74
*991 FILLER_27_86
*992 FILLER_27_98
*993 FILLER_28_109
*994 FILLER_28_121
*995 FILLER_28_133
*996 FILLER_28_139
*997 FILLER_28_141
*998 FILLER_28_15
*999 FILLER_28_153
*1000 FILLER_28_165
*1001 FILLER_28_177
*1002 FILLER_28_189
*1003 FILLER_28_195
*1004 FILLER_28_197
*1005 FILLER_28_219
*1006 FILLER_28_225
*1007 FILLER_28_237
*1008 FILLER_28_249
*1009 FILLER_28_253
*1010 FILLER_28_265
*1011 FILLER_28_27
*1012 FILLER_28_277
*1013 FILLER_28_289
*1014 FILLER_28_29
*1015 FILLER_28_3
*1016 FILLER_28_301
*1017 FILLER_28_307
*1018 FILLER_28_309
*1019 FILLER_28_321
*1020 FILLER_28_333
*1021 FILLER_28_345
*1022 FILLER_28_357
*1023 FILLER_28_363
*1024 FILLER_28_365
*1025 FILLER_28_377
*1026 FILLER_28_389
*1027 FILLER_28_401
*1028 FILLER_28_41
*1029 FILLER_28_47
*1030 FILLER_28_69
*1031 FILLER_28_75
*1032 FILLER_28_83
*1033 FILLER_28_85
*1034 FILLER_28_97
*1035 FILLER_29_110
*1036 FILLER_29_113
*1037 FILLER_29_125
*1038 FILLER_29_137
*1039 FILLER_29_149
*1040 FILLER_29_15
*1041 FILLER_29_161
*1042 FILLER_29_167
*1043 FILLER_29_169
*1044 FILLER_29_181
*1045 FILLER_29_193
*1046 FILLER_29_205
*1047 FILLER_29_217
*1048 FILLER_29_223
*1049 FILLER_29_225
*1050 FILLER_29_237
*1051 FILLER_29_249
*1052 FILLER_29_261
*1053 FILLER_29_27
*1054 FILLER_29_273
*1055 FILLER_29_279
*1056 FILLER_29_281
*1057 FILLER_29_293
*1058 FILLER_29_3
*1059 FILLER_29_305
*1060 FILLER_29_317
*1061 FILLER_29_329
*1062 FILLER_29_335
*1063 FILLER_29_337
*1064 FILLER_29_349
*1065 FILLER_29_361
*1066 FILLER_29_373
*1067 FILLER_29_385
*1068 FILLER_29_39
*1069 FILLER_29_391
*1070 FILLER_29_393
*1071 FILLER_29_405
*1072 FILLER_29_54
*1073 FILLER_29_57
*1074 FILLER_29_80
*1075 FILLER_29_86
*1076 FILLER_29_98
*1077 FILLER_2_109
*1078 FILLER_2_121
*1079 FILLER_2_133
*1080 FILLER_2_139
*1081 FILLER_2_141
*1082 FILLER_2_15
*1083 FILLER_2_153
*1084 FILLER_2_165
*1085 FILLER_2_177
*1086 FILLER_2_189
*1087 FILLER_2_195
*1088 FILLER_2_197
*1089 FILLER_2_209
*1090 FILLER_2_221
*1091 FILLER_2_233
*1092 FILLER_2_245
*1093 FILLER_2_251
*1094 FILLER_2_253
*1095 FILLER_2_265
*1096 FILLER_2_27
*1097 FILLER_2_277
*1098 FILLER_2_289
*1099 FILLER_2_29
*1100 FILLER_2_3
*1101 FILLER_2_301
*1102 FILLER_2_307
*1103 FILLER_2_309
*1104 FILLER_2_321
*1105 FILLER_2_333
*1106 FILLER_2_345
*1107 FILLER_2_357
*1108 FILLER_2_363
*1109 FILLER_2_365
*1110 FILLER_2_377
*1111 FILLER_2_389
*1112 FILLER_2_401
*1113 FILLER_2_41
*1114 FILLER_2_53
*1115 FILLER_2_65
*1116 FILLER_2_77
*1117 FILLER_2_83
*1118 FILLER_2_85
*1119 FILLER_2_97
*1120 FILLER_30_109
*1121 FILLER_30_121
*1122 FILLER_30_133
*1123 FILLER_30_139
*1124 FILLER_30_141
*1125 FILLER_30_15
*1126 FILLER_30_153
*1127 FILLER_30_165
*1128 FILLER_30_177
*1129 FILLER_30_189
*1130 FILLER_30_195
*1131 FILLER_30_197
*1132 FILLER_30_209
*1133 FILLER_30_221
*1134 FILLER_30_233
*1135 FILLER_30_237
*1136 FILLER_30_249
*1137 FILLER_30_253
*1138 FILLER_30_265
*1139 FILLER_30_27
*1140 FILLER_30_277
*1141 FILLER_30_289
*1142 FILLER_30_29
*1143 FILLER_30_3
*1144 FILLER_30_301
*1145 FILLER_30_307
*1146 FILLER_30_309
*1147 FILLER_30_321
*1148 FILLER_30_333
*1149 FILLER_30_345
*1150 FILLER_30_357
*1151 FILLER_30_363
*1152 FILLER_30_365
*1153 FILLER_30_377
*1154 FILLER_30_389
*1155 FILLER_30_401
*1156 FILLER_30_41
*1157 FILLER_30_53
*1158 FILLER_30_65
*1159 FILLER_30_77
*1160 FILLER_30_83
*1161 FILLER_30_85
*1162 FILLER_30_97
*1163 FILLER_31_105
*1164 FILLER_31_111
*1165 FILLER_31_113
*1166 FILLER_31_125
*1167 FILLER_31_137
*1168 FILLER_31_149
*1169 FILLER_31_15
*1170 FILLER_31_161
*1171 FILLER_31_167
*1172 FILLER_31_169
*1173 FILLER_31_181
*1174 FILLER_31_193
*1175 FILLER_31_205
*1176 FILLER_31_217
*1177 FILLER_31_223
*1178 FILLER_31_225
*1179 FILLER_31_252
*1180 FILLER_31_258
*1181 FILLER_31_27
*1182 FILLER_31_270
*1183 FILLER_31_278
*1184 FILLER_31_281
*1185 FILLER_31_293
*1186 FILLER_31_3
*1187 FILLER_31_305
*1188 FILLER_31_317
*1189 FILLER_31_329
*1190 FILLER_31_335
*1191 FILLER_31_337
*1192 FILLER_31_349
*1193 FILLER_31_361
*1194 FILLER_31_373
*1195 FILLER_31_385
*1196 FILLER_31_39
*1197 FILLER_31_391
*1198 FILLER_31_393
*1199 FILLER_31_397
*1200 FILLER_31_405
*1201 FILLER_31_51
*1202 FILLER_31_55
*1203 FILLER_31_57
*1204 FILLER_31_69
*1205 FILLER_31_81
*1206 FILLER_31_93
*1207 FILLER_32_109
*1208 FILLER_32_121
*1209 FILLER_32_133
*1210 FILLER_32_139
*1211 FILLER_32_141
*1212 FILLER_32_15
*1213 FILLER_32_153
*1214 FILLER_32_165
*1215 FILLER_32_177
*1216 FILLER_32_189
*1217 FILLER_32_195
*1218 FILLER_32_197
*1219 FILLER_32_209
*1220 FILLER_32_215
*1221 FILLER_32_218
*1222 FILLER_32_225
*1223 FILLER_32_250
*1224 FILLER_32_253
*1225 FILLER_32_257
*1226 FILLER_32_265
*1227 FILLER_32_269
*1228 FILLER_32_27
*1229 FILLER_32_275
*1230 FILLER_32_287
*1231 FILLER_32_29
*1232 FILLER_32_299
*1233 FILLER_32_3
*1234 FILLER_32_307
*1235 FILLER_32_309
*1236 FILLER_32_321
*1237 FILLER_32_333
*1238 FILLER_32_345
*1239 FILLER_32_357
*1240 FILLER_32_363
*1241 FILLER_32_365
*1242 FILLER_32_377
*1243 FILLER_32_383
*1244 FILLER_32_405
*1245 FILLER_32_41
*1246 FILLER_32_53
*1247 FILLER_32_65
*1248 FILLER_32_77
*1249 FILLER_32_83
*1250 FILLER_32_85
*1251 FILLER_32_97
*1252 FILLER_33_105
*1253 FILLER_33_111
*1254 FILLER_33_113
*1255 FILLER_33_125
*1256 FILLER_33_137
*1257 FILLER_33_149
*1258 FILLER_33_15
*1259 FILLER_33_161
*1260 FILLER_33_167
*1261 FILLER_33_169
*1262 FILLER_33_181
*1263 FILLER_33_193
*1264 FILLER_33_205
*1265 FILLER_33_215
*1266 FILLER_33_222
*1267 FILLER_33_225
*1268 FILLER_33_247
*1269 FILLER_33_27
*1270 FILLER_33_276
*1271 FILLER_33_281
*1272 FILLER_33_285
*1273 FILLER_33_297
*1274 FILLER_33_3
*1275 FILLER_33_309
*1276 FILLER_33_321
*1277 FILLER_33_333
*1278 FILLER_33_337
*1279 FILLER_33_349
*1280 FILLER_33_361
*1281 FILLER_33_373
*1282 FILLER_33_377
*1283 FILLER_33_381
*1284 FILLER_33_388
*1285 FILLER_33_39
*1286 FILLER_33_393
*1287 FILLER_33_398
*1288 FILLER_33_404
*1289 FILLER_33_51
*1290 FILLER_33_55
*1291 FILLER_33_57
*1292 FILLER_33_69
*1293 FILLER_33_81
*1294 FILLER_33_93
*1295 FILLER_34_109
*1296 FILLER_34_121
*1297 FILLER_34_133
*1298 FILLER_34_139
*1299 FILLER_34_141
*1300 FILLER_34_15
*1301 FILLER_34_153
*1302 FILLER_34_165
*1303 FILLER_34_177
*1304 FILLER_34_189
*1305 FILLER_34_195
*1306 FILLER_34_197
*1307 FILLER_34_209
*1308 FILLER_34_221
*1309 FILLER_34_224
*1310 FILLER_34_250
*1311 FILLER_34_253
*1312 FILLER_34_257
*1313 FILLER_34_269
*1314 FILLER_34_27
*1315 FILLER_34_281
*1316 FILLER_34_29
*1317 FILLER_34_293
*1318 FILLER_34_3
*1319 FILLER_34_305
*1320 FILLER_34_309
*1321 FILLER_34_321
*1322 FILLER_34_333
*1323 FILLER_34_345
*1324 FILLER_34_357
*1325 FILLER_34_363
*1326 FILLER_34_365
*1327 FILLER_34_377
*1328 FILLER_34_383
*1329 FILLER_34_405
*1330 FILLER_34_41
*1331 FILLER_34_53
*1332 FILLER_34_65
*1333 FILLER_34_77
*1334 FILLER_34_83
*1335 FILLER_34_85
*1336 FILLER_34_97
*1337 FILLER_35_105
*1338 FILLER_35_111
*1339 FILLER_35_113
*1340 FILLER_35_125
*1341 FILLER_35_137
*1342 FILLER_35_149
*1343 FILLER_35_15
*1344 FILLER_35_161
*1345 FILLER_35_167
*1346 FILLER_35_169
*1347 FILLER_35_181
*1348 FILLER_35_193
*1349 FILLER_35_205
*1350 FILLER_35_217
*1351 FILLER_35_223
*1352 FILLER_35_225
*1353 FILLER_35_233
*1354 FILLER_35_237
*1355 FILLER_35_243
*1356 FILLER_35_247
*1357 FILLER_35_253
*1358 FILLER_35_265
*1359 FILLER_35_27
*1360 FILLER_35_277
*1361 FILLER_35_281
*1362 FILLER_35_293
*1363 FILLER_35_3
*1364 FILLER_35_305
*1365 FILLER_35_317
*1366 FILLER_35_329
*1367 FILLER_35_335
*1368 FILLER_35_337
*1369 FILLER_35_349
*1370 FILLER_35_361
*1371 FILLER_35_375
*1372 FILLER_35_382
*1373 FILLER_35_389
*1374 FILLER_35_39
*1375 FILLER_35_393
*1376 FILLER_35_405
*1377 FILLER_35_51
*1378 FILLER_35_55
*1379 FILLER_35_57
*1380 FILLER_35_69
*1381 FILLER_35_81
*1382 FILLER_35_93
*1383 FILLER_36_109
*1384 FILLER_36_121
*1385 FILLER_36_133
*1386 FILLER_36_139
*1387 FILLER_36_141
*1388 FILLER_36_15
*1389 FILLER_36_153
*1390 FILLER_36_165
*1391 FILLER_36_177
*1392 FILLER_36_189
*1393 FILLER_36_195
*1394 FILLER_36_197
*1395 FILLER_36_209
*1396 FILLER_36_221
*1397 FILLER_36_233
*1398 FILLER_36_245
*1399 FILLER_36_251
*1400 FILLER_36_253
*1401 FILLER_36_265
*1402 FILLER_36_27
*1403 FILLER_36_277
*1404 FILLER_36_289
*1405 FILLER_36_29
*1406 FILLER_36_3
*1407 FILLER_36_301
*1408 FILLER_36_307
*1409 FILLER_36_309
*1410 FILLER_36_321
*1411 FILLER_36_333
*1412 FILLER_36_345
*1413 FILLER_36_357
*1414 FILLER_36_363
*1415 FILLER_36_365
*1416 FILLER_36_377
*1417 FILLER_36_383
*1418 FILLER_36_405
*1419 FILLER_36_41
*1420 FILLER_36_53
*1421 FILLER_36_65
*1422 FILLER_36_77
*1423 FILLER_36_83
*1424 FILLER_36_85
*1425 FILLER_36_97
*1426 FILLER_37_105
*1427 FILLER_37_111
*1428 FILLER_37_113
*1429 FILLER_37_125
*1430 FILLER_37_137
*1431 FILLER_37_149
*1432 FILLER_37_15
*1433 FILLER_37_161
*1434 FILLER_37_167
*1435 FILLER_37_169
*1436 FILLER_37_181
*1437 FILLER_37_193
*1438 FILLER_37_205
*1439 FILLER_37_217
*1440 FILLER_37_223
*1441 FILLER_37_225
*1442 FILLER_37_237
*1443 FILLER_37_249
*1444 FILLER_37_261
*1445 FILLER_37_27
*1446 FILLER_37_273
*1447 FILLER_37_279
*1448 FILLER_37_281
*1449 FILLER_37_293
*1450 FILLER_37_3
*1451 FILLER_37_305
*1452 FILLER_37_317
*1453 FILLER_37_323
*1454 FILLER_37_330
*1455 FILLER_37_337
*1456 FILLER_37_349
*1457 FILLER_37_361
*1458 FILLER_37_373
*1459 FILLER_37_385
*1460 FILLER_37_39
*1461 FILLER_37_391
*1462 FILLER_37_393
*1463 FILLER_37_405
*1464 FILLER_37_51
*1465 FILLER_37_55
*1466 FILLER_37_57
*1467 FILLER_37_69
*1468 FILLER_37_81
*1469 FILLER_37_93
*1470 FILLER_38_109
*1471 FILLER_38_121
*1472 FILLER_38_133
*1473 FILLER_38_139
*1474 FILLER_38_141
*1475 FILLER_38_153
*1476 FILLER_38_165
*1477 FILLER_38_177
*1478 FILLER_38_189
*1479 FILLER_38_19
*1480 FILLER_38_195
*1481 FILLER_38_197
*1482 FILLER_38_209
*1483 FILLER_38_221
*1484 FILLER_38_233
*1485 FILLER_38_245
*1486 FILLER_38_251
*1487 FILLER_38_253
*1488 FILLER_38_265
*1489 FILLER_38_27
*1490 FILLER_38_277
*1491 FILLER_38_289
*1492 FILLER_38_29
*1493 FILLER_38_3
*1494 FILLER_38_301
*1495 FILLER_38_307
*1496 FILLER_38_309
*1497 FILLER_38_321
*1498 FILLER_38_346
*1499 FILLER_38_358
*1500 FILLER_38_365
*1501 FILLER_38_377
*1502 FILLER_38_389
*1503 FILLER_38_401
*1504 FILLER_38_41
*1505 FILLER_38_53
*1506 FILLER_38_65
*1507 FILLER_38_7
*1508 FILLER_38_77
*1509 FILLER_38_83
*1510 FILLER_38_85
*1511 FILLER_38_97
*1512 FILLER_39_105
*1513 FILLER_39_111
*1514 FILLER_39_113
*1515 FILLER_39_125
*1516 FILLER_39_137
*1517 FILLER_39_149
*1518 FILLER_39_15
*1519 FILLER_39_161
*1520 FILLER_39_167
*1521 FILLER_39_169
*1522 FILLER_39_181
*1523 FILLER_39_193
*1524 FILLER_39_205
*1525 FILLER_39_217
*1526 FILLER_39_223
*1527 FILLER_39_225
*1528 FILLER_39_237
*1529 FILLER_39_249
*1530 FILLER_39_261
*1531 FILLER_39_27
*1532 FILLER_39_273
*1533 FILLER_39_279
*1534 FILLER_39_281
*1535 FILLER_39_293
*1536 FILLER_39_3
*1537 FILLER_39_305
*1538 FILLER_39_317
*1539 FILLER_39_329
*1540 FILLER_39_335
*1541 FILLER_39_337
*1542 FILLER_39_349
*1543 FILLER_39_361
*1544 FILLER_39_373
*1545 FILLER_39_385