*SPEF "ieee 1481-1999"
*DESIGN "sb_0__4_"
*DATE "11:11:11 Fri 11 11, 1111"
*VENDOR "OpenRCX"
*PROGRAM "Parallel Extraction"
*VERSION "1.0"
*DESIGN_FLOW "NAME_SCOPE LOCAL" "PIN_CAP NONE"
*DIVIDER /
*DELIMITER :
*BUS_DELIMITER []
*T_UNIT 1 NS
*C_UNIT 1 PF
*R_UNIT 1 OHM
*L_UNIT 1 HENRY

*NAME_MAP
*1 bottom_left_grid_right_width_0_height_0_subtile_0__pin_inpad_0_
*2 bottom_left_grid_right_width_0_height_0_subtile_1__pin_inpad_0_
*3 bottom_left_grid_right_width_0_height_0_subtile_2__pin_inpad_0_
*4 bottom_left_grid_right_width_0_height_0_subtile_3__pin_inpad_0_
*5 bottom_left_grid_right_width_0_height_0_subtile_4__pin_inpad_0_
*6 bottom_left_grid_right_width_0_height_0_subtile_5__pin_inpad_0_
*7 bottom_left_grid_right_width_0_height_0_subtile_6__pin_inpad_0_
*8 bottom_left_grid_right_width_0_height_0_subtile_7__pin_inpad_0_
*9 bottom_right_grid_left_width_0_height_0_subtile_0__pin_O_3_
*10 bottom_right_grid_left_width_0_height_0_subtile_0__pin_O_7_
*11 ccff_head
*12 ccff_tail
*13 chanx_right_in[0]
*14 chanx_right_in[10]
*15 chanx_right_in[11]
*16 chanx_right_in[12]
*17 chanx_right_in[13]
*18 chanx_right_in[14]
*19 chanx_right_in[15]
*20 chanx_right_in[16]
*21 chanx_right_in[17]
*22 chanx_right_in[18]
*23 chanx_right_in[1]
*24 chanx_right_in[2]
*25 chanx_right_in[3]
*26 chanx_right_in[4]
*27 chanx_right_in[5]
*28 chanx_right_in[6]
*29 chanx_right_in[7]
*30 chanx_right_in[8]
*31 chanx_right_in[9]
*32 chanx_right_out[0]
*33 chanx_right_out[10]
*34 chanx_right_out[11]
*35 chanx_right_out[12]
*36 chanx_right_out[13]
*37 chanx_right_out[14]
*38 chanx_right_out[15]
*39 chanx_right_out[16]
*40 chanx_right_out[17]
*41 chanx_right_out[18]
*42 chanx_right_out[1]
*43 chanx_right_out[2]
*44 chanx_right_out[3]
*45 chanx_right_out[4]
*46 chanx_right_out[5]
*47 chanx_right_out[6]
*48 chanx_right_out[7]
*49 chanx_right_out[8]
*50 chanx_right_out[9]
*51 chany_bottom_in[0]
*52 chany_bottom_in[10]
*53 chany_bottom_in[11]
*54 chany_bottom_in[12]
*55 chany_bottom_in[13]
*56 chany_bottom_in[14]
*57 chany_bottom_in[15]
*58 chany_bottom_in[16]
*59 chany_bottom_in[17]
*60 chany_bottom_in[18]
*61 chany_bottom_in[1]
*62 chany_bottom_in[2]
*63 chany_bottom_in[3]
*64 chany_bottom_in[4]
*65 chany_bottom_in[5]
*66 chany_bottom_in[6]
*67 chany_bottom_in[7]
*68 chany_bottom_in[8]
*69 chany_bottom_in[9]
*70 chany_bottom_out[0]
*71 chany_bottom_out[10]
*72 chany_bottom_out[11]
*73 chany_bottom_out[12]
*74 chany_bottom_out[13]
*75 chany_bottom_out[14]
*76 chany_bottom_out[15]
*77 chany_bottom_out[16]
*78 chany_bottom_out[17]
*79 chany_bottom_out[18]
*80 chany_bottom_out[1]
*81 chany_bottom_out[2]
*82 chany_bottom_out[3]
*83 chany_bottom_out[4]
*84 chany_bottom_out[5]
*85 chany_bottom_out[6]
*86 chany_bottom_out[7]
*87 chany_bottom_out[8]
*88 chany_bottom_out[9]
*89 pReset
*90 prog_clk
*91 right_bottom_grid_top_width_0_height_0_subtile_0__pin_O_0_
*92 right_bottom_grid_top_width_0_height_0_subtile_0__pin_O_4_
*93 right_top_grid_bottom_width_0_height_0_subtile_0__pin_inpad_0_
*94 right_top_grid_bottom_width_0_height_0_subtile_1__pin_inpad_0_
*95 right_top_grid_bottom_width_0_height_0_subtile_2__pin_inpad_0_
*96 right_top_grid_bottom_width_0_height_0_subtile_3__pin_inpad_0_
*97 right_top_grid_bottom_width_0_height_0_subtile_4__pin_inpad_0_
*98 right_top_grid_bottom_width_0_height_0_subtile_5__pin_inpad_0_
*99 right_top_grid_bottom_width_0_height_0_subtile_6__pin_inpad_0_
*100 right_top_grid_bottom_width_0_height_0_subtile_7__pin_inpad_0_
*103 _0000_
*104 _0001_
*105 _0002_
*106 _0003_
*107 _0004_
*108 _0005_
*109 _0006_
*110 _0007_
*111 _0008_
*112 _0009_
*113 _0010_
*114 _0011_
*115 _0012_
*116 _0013_
*117 _0014_
*118 _0015_
*119 _0016_
*120 _0017_
*121 _0018_
*122 _0019_
*123 _0020_
*124 _0021_
*125 _0022_
*126 _0023_
*127 _0024_
*128 _0025_
*129 _0026_
*130 _0027_
*131 _0028_
*132 _0029_
*133 _0030_
*134 _0031_
*135 _0032_
*136 _0033_
*137 _0034_
*138 _0035_
*139 _0036_
*140 _0037_
*141 _0038_
*142 _0039_
*143 _0040_
*144 _0041_
*145 _0042_
*146 _0043_
*147 _0044_
*148 _0045_
*149 _0046_
*150 _0047_
*151 _0048_
*152 _0049_
*153 _0050_
*154 _0051_
*155 _0052_
*156 _0053_
*157 _0054_
*158 _0055_
*159 _0056_
*160 _0057_
*161 _0058_
*162 _0059_
*163 _0060_
*164 _0061_
*165 _0062_
*166 _0063_
*167 _0064_
*168 _0065_
*169 _0066_
*170 _0067_
*171 _0068_
*172 _0069_
*173 _0070_
*174 _0071_
*175 _0072_
*176 _0073_
*177 _0074_
*178 _0075_
*179 _0076_
*180 _0077_
*181 _0078_
*182 _0079_
*183 _0080_
*184 _0081_
*185 _0082_
*186 _0083_
*187 _0084_
*188 _0085_
*189 _0086_
*190 _0087_
*191 _0088_
*192 _0089_
*193 _0090_
*194 _0091_
*195 _0092_
*196 _0093_
*197 _0094_
*198 _0095_
*199 _0096_
*200 _0097_
*201 _0098_
*202 _0099_
*203 _0100_
*204 _0101_
*205 _0102_
*206 _0103_
*207 _0104_
*208 _0105_
*209 _0106_
*210 _0107_
*211 _0108_
*212 _0109_
*213 _0110_
*214 _0111_
*215 _0112_
*216 _0113_
*217 _0114_
*218 _0115_
*219 _0116_
*220 _0117_
*221 _0118_
*222 _0119_
*223 _0120_
*224 _0121_
*225 _0122_
*226 _0123_
*227 _0124_
*228 _0125_
*229 _0126_
*230 _0127_
*231 _0128_
*232 _0129_
*233 _0130_
*234 _0131_
*235 _0132_
*236 _0133_
*237 _0134_
*238 _0135_
*239 _0136_
*240 _0137_
*241 _0138_
*242 _0139_
*243 _0140_
*244 _0141_
*245 _0142_
*246 _0143_
*247 _0144_
*248 _0145_
*249 _0146_
*250 _0147_
*251 _0148_
*252 _0149_
*253 _0150_
*254 _0151_
*255 _0152_
*256 _0153_
*257 _0154_
*258 _0155_
*259 _0156_
*260 _0157_
*261 _0158_
*262 _0159_
*263 _0160_
*264 _0161_
*265 _0162_
*266 _0163_
*267 _0164_
*268 _0165_
*269 _0166_
*270 _0167_
*271 _0168_
*272 _0169_
*273 _0170_
*274 _0171_
*275 _0172_
*276 _0173_
*277 _0174_
*278 _0175_
*279 _0176_
*280 _0177_
*281 _0178_
*282 _0179_
*283 _0180_
*284 _0181_
*285 _0182_
*286 _0183_
*287 _0184_
*288 _0185_
*289 _0186_
*290 _0187_
*291 _0188_
*292 _0189_
*293 _0190_
*294 _0191_
*295 _0192_
*296 _0193_
*297 _0194_
*298 _0195_
*299 _0196_
*300 _0197_
*301 _0198_
*302 _0199_
*303 _0200_
*304 _0201_
*305 _0202_
*306 _0203_
*307 _0204_
*308 _0205_
*309 _0206_
*310 _0207_
*311 _0208_
*312 _0209_
*313 _0210_
*314 _0211_
*315 _0212_
*316 _0213_
*317 _0214_
*318 _0215_
*319 _0216_
*320 _0217_
*321 _0218_
*322 _0219_
*323 _0220_
*324 _0221_
*325 _0222_
*326 _0223_
*327 _0224_
*328 _0225_
*329 _0226_
*330 _0227_
*331 _0228_
*332 _0229_
*333 _0230_
*334 _0231_
*335 _0232_
*336 _0233_
*337 _0234_
*338 _0235_
*339 _0236_
*340 _0237_
*341 _0238_
*342 _0239_
*343 _0240_
*344 _0241_
*345 _0242_
*346 _0243_
*347 _0244_
*348 _0245_
*349 _0246_
*350 _0247_
*351 _0248_
*352 _0249_
*353 _0250_
*354 _0251_
*355 _0252_
*356 _0253_
*357 _0254_
*358 _0255_
*359 _0256_
*360 _0257_
*361 _0258_
*362 _0259_
*363 _0260_
*364 _0261_
*365 _0262_
*366 _0263_
*367 _0264_
*368 _0265_
*369 _0266_
*370 _0267_
*371 _0268_
*372 _0269_
*373 _0270_
*374 _0271_
*375 _0272_
*376 _0273_
*377 _0274_
*378 _0275_
*379 _0276_
*380 _0277_
*381 _0278_
*382 _0279_
*383 _0280_
*384 _0281_
*385 _0282_
*386 _0283_
*387 _0284_
*388 _0285_
*389 _0286_
*390 _0287_
*391 _0288_
*392 _0289_
*393 _0290_
*394 _0291_
*395 _0292_
*396 _0293_
*397 _0294_
*398 _0295_
*399 _0296_
*400 _0297_
*401 _0298_
*402 _0299_
*403 _0300_
*404 _0301_
*405 _0302_
*406 _0303_
*407 _0304_
*408 _0305_
*409 _0306_
*410 _0307_
*411 _0308_
*412 _0309_
*413 _0310_
*414 _0311_
*415 _0312_
*416 _0313_
*417 _0314_
*418 _0315_
*419 _0316_
*420 _0317_
*421 _0318_
*422 _0319_
*423 _0320_
*424 _0321_
*425 _0322_
*426 _0323_
*427 _0324_
*428 _0325_
*429 _0326_
*430 _0327_
*431 _0328_
*432 _0329_
*433 _0330_
*434 _0331_
*435 _0332_
*436 _0333_
*437 _0334_
*438 _0335_
*439 _0336_
*440 _0337_
*441 _0338_
*442 _0339_
*443 _0340_
*444 _0341_
*445 _0342_
*446 _0343_
*447 _0344_
*448 _0345_
*449 _0346_
*450 _0347_
*451 _0348_
*452 _0349_
*453 _0350_
*454 _0351_
*455 _0352_
*456 _0353_
*457 _0354_
*458 _0355_
*459 _0356_
*460 _0357_
*461 _0358_
*462 _0359_
*463 _0360_
*464 _0361_
*465 _0362_
*466 _0363_
*467 _0364_
*468 _0365_
*469 _0366_
*470 mem_bottom_track_1\.DFFR_0_\.D
*471 mem_bottom_track_1\.DFFR_0_\.Q
*472 mem_bottom_track_1\.DFFR_1_\.Q
*473 mem_bottom_track_11\.DFFR_0_\.D
*474 mem_bottom_track_11\.DFFR_0_\.Q
*475 mem_bottom_track_11\.DFFR_1_\.Q
*476 mem_bottom_track_13\.DFFR_0_\.Q
*477 mem_bottom_track_13\.DFFR_1_\.Q
*478 mem_bottom_track_15\.DFFR_0_\.Q
*479 mem_bottom_track_15\.DFFR_1_\.Q
*480 mem_bottom_track_17\.DFFR_0_\.Q
*481 mem_bottom_track_17\.DFFR_1_\.Q
*482 mem_bottom_track_19\.DFFR_0_\.Q
*483 mem_bottom_track_19\.DFFR_1_\.Q
*484 mem_bottom_track_23\.DFFR_0_\.Q
*485 mem_bottom_track_23\.DFFR_1_\.Q
*486 mem_bottom_track_25\.DFFR_0_\.Q
*487 mem_bottom_track_25\.DFFR_1_\.Q
*488 mem_bottom_track_27\.DFFR_0_\.Q
*489 mem_bottom_track_27\.DFFR_1_\.Q
*490 mem_bottom_track_29\.DFFR_0_\.Q
*491 mem_bottom_track_29\.DFFR_1_\.Q
*492 mem_bottom_track_3\.DFFR_0_\.Q
*493 mem_bottom_track_3\.DFFR_1_\.Q
*494 mem_bottom_track_31\.DFFR_0_\.Q
*495 mem_bottom_track_31\.DFFR_1_\.Q
*496 mem_bottom_track_33\.DFFR_0_\.Q
*497 mem_bottom_track_33\.DFFR_1_\.Q
*498 mem_bottom_track_35\.DFFR_0_\.Q
*499 mem_bottom_track_35\.DFFR_1_\.Q
*500 mem_bottom_track_37\.DFFR_0_\.Q
*501 mem_bottom_track_5\.DFFR_0_\.Q
*502 mem_bottom_track_5\.DFFR_1_\.Q
*503 mem_bottom_track_7\.DFFR_0_\.Q
*504 mem_bottom_track_7\.DFFR_1_\.Q
*505 mem_bottom_track_9\.DFFR_0_\.Q
*506 mem_right_track_0\.DFFR_0_\.Q
*507 mem_right_track_0\.DFFR_1_\.Q
*508 mem_right_track_10\.DFFR_0_\.D
*509 mem_right_track_10\.DFFR_0_\.Q
*510 mem_right_track_10\.DFFR_1_\.Q
*511 mem_right_track_12\.DFFR_0_\.Q
*512 mem_right_track_12\.DFFR_1_\.Q
*513 mem_right_track_14\.DFFR_0_\.Q
*514 mem_right_track_14\.DFFR_1_\.Q
*515 mem_right_track_16\.DFFR_0_\.Q
*516 mem_right_track_16\.DFFR_1_\.Q
*517 mem_right_track_18\.DFFR_0_\.Q
*518 mem_right_track_18\.DFFR_1_\.Q
*519 mem_right_track_2\.DFFR_0_\.Q
*520 mem_right_track_2\.DFFR_1_\.Q
*521 mem_right_track_20\.DFFR_0_\.Q
*522 mem_right_track_20\.DFFR_1_\.Q
*523 mem_right_track_22\.DFFR_0_\.Q
*524 mem_right_track_22\.DFFR_1_\.Q
*525 mem_right_track_24\.DFFR_0_\.Q
*526 mem_right_track_24\.DFFR_1_\.Q
*527 mem_right_track_26\.DFFR_0_\.Q
*528 mem_right_track_26\.DFFR_1_\.Q
*529 mem_right_track_28\.DFFR_0_\.Q
*530 mem_right_track_28\.DFFR_1_\.Q
*531 mem_right_track_30\.DFFR_0_\.Q
*532 mem_right_track_30\.DFFR_1_\.Q
*533 mem_right_track_32\.DFFR_0_\.Q
*534 mem_right_track_32\.DFFR_1_\.Q
*535 mem_right_track_34\.DFFR_0_\.Q
*536 mem_right_track_34\.DFFR_1_\.Q
*537 mem_right_track_36\.DFFR_0_\.Q
*538 mem_right_track_4\.DFFR_0_\.Q
*539 mem_right_track_4\.DFFR_1_\.Q
*540 mem_right_track_6\.DFFR_0_\.Q
*541 mem_right_track_6\.DFFR_1_\.Q
*542 mem_right_track_8\.DFFR_0_\.Q
*543 mux_bottom_track_1\.INVTX1_0_\.out
*544 mux_bottom_track_1\.INVTX1_1_\.out
*545 mux_bottom_track_1\.mux_2level_tapbuf_basis_input2_mem1_0_out
*546 mux_bottom_track_1\.mux_2level_tapbuf_basis_input2_mem1_1_out
*547 mux_bottom_track_1\.out
*548 mux_bottom_track_11\.INVTX1_0_\.out
*549 mux_bottom_track_11\.INVTX1_1_\.out
*550 mux_bottom_track_11\.INVTX1_2_\.out
*551 mux_bottom_track_11\.mux_2level_tapbuf_basis_input2_mem1_0_out
*552 mux_bottom_track_11\.mux_2level_tapbuf_basis_input2_mem1_1_out
*553 mux_bottom_track_11\.mux_2level_tapbuf_basis_input2_mem1_2_out
*554 mux_bottom_track_11\.out
*555 mux_bottom_track_13\.INVTX1_0_\.out
*556 mux_bottom_track_13\.INVTX1_2_\.out
*557 mux_bottom_track_13\.mux_2level_tapbuf_basis_input2_mem1_0_out
*558 mux_bottom_track_13\.mux_2level_tapbuf_basis_input2_mem1_1_out
*559 mux_bottom_track_13\.mux_2level_tapbuf_basis_input2_mem1_2_out
*560 mux_bottom_track_13\.out
*561 mux_bottom_track_15\.INVTX1_0_\.out
*562 mux_bottom_track_15\.INVTX1_2_\.out
*563 mux_bottom_track_15\.mux_2level_tapbuf_basis_input2_mem1_0_out
*564 mux_bottom_track_15\.mux_2level_tapbuf_basis_input2_mem1_1_out
*565 mux_bottom_track_15\.mux_2level_tapbuf_basis_input2_mem1_2_out
*566 mux_bottom_track_15\.out
*567 mux_bottom_track_17\.INVTX1_0_\.out
*568 mux_bottom_track_17\.INVTX1_2_\.out
*569 mux_bottom_track_17\.mux_2level_tapbuf_basis_input2_mem1_0_out
*570 mux_bottom_track_17\.mux_2level_tapbuf_basis_input2_mem1_1_out
*571 mux_bottom_track_17\.mux_2level_tapbuf_basis_input2_mem1_2_out
*572 mux_bottom_track_17\.out
*573 mux_bottom_track_19\.INVTX1_0_\.out
*574 mux_bottom_track_19\.mux_2level_tapbuf_basis_input2_mem1_0_out
*575 mux_bottom_track_19\.mux_2level_tapbuf_basis_input2_mem1_1_out
*576 mux_bottom_track_19\.mux_2level_tapbuf_basis_input2_mem1_2_out
*577 mux_bottom_track_19\.out
*578 mux_bottom_track_23\.INVTX1_0_\.out
*579 mux_bottom_track_23\.INVTX1_1_\.out
*580 mux_bottom_track_23\.mux_2level_tapbuf_basis_input2_mem1_0_out
*581 mux_bottom_track_23\.mux_2level_tapbuf_basis_input2_mem1_1_out
*582 mux_bottom_track_23\.out
*583 mux_bottom_track_25\.INVTX1_0_\.out
*584 mux_bottom_track_25\.INVTX1_1_\.out
*585 mux_bottom_track_25\.mux_2level_tapbuf_basis_input2_mem1_0_out
*586 mux_bottom_track_25\.mux_2level_tapbuf_basis_input2_mem1_1_out
*587 mux_bottom_track_25\.out
*588 mux_bottom_track_27\.INVTX1_0_\.out
*589 mux_bottom_track_27\.INVTX1_1_\.out
*590 mux_bottom_track_27\.mux_2level_tapbuf_basis_input2_mem1_0_out
*591 mux_bottom_track_27\.mux_2level_tapbuf_basis_input2_mem1_1_out
*592 mux_bottom_track_27\.out
*593 mux_bottom_track_29\.INVTX1_0_\.out
*594 mux_bottom_track_29\.mux_2level_tapbuf_basis_input2_mem1_0_out
*595 mux_bottom_track_29\.mux_2level_tapbuf_basis_input2_mem1_1_out
*596 mux_bottom_track_29\.out
*597 mux_bottom_track_3\.INVTX1_0_\.out
*598 mux_bottom_track_3\.INVTX1_1_\.out
*599 mux_bottom_track_3\.mux_2level_tapbuf_basis_input2_mem1_0_out
*600 mux_bottom_track_3\.mux_2level_tapbuf_basis_input2_mem1_1_out
*601 mux_bottom_track_3\.mux_2level_tapbuf_basis_input2_mem1_2_out
*602 mux_bottom_track_3\.out
*603 mux_bottom_track_31\.INVTX1_0_\.out
*604 mux_bottom_track_31\.mux_2level_tapbuf_basis_input2_mem1_0_out
*605 mux_bottom_track_31\.mux_2level_tapbuf_basis_input2_mem1_1_out
*606 mux_bottom_track_31\.out
*607 mux_bottom_track_33\.INVTX1_0_\.out
*608 mux_bottom_track_33\.mux_2level_tapbuf_basis_input2_mem1_0_out
*609 mux_bottom_track_33\.mux_2level_tapbuf_basis_input2_mem1_1_out
*610 mux_bottom_track_33\.out
*611 mux_bottom_track_35\.INVTX1_0_\.out
*612 mux_bottom_track_35\.mux_2level_tapbuf_basis_input2_mem1_0_out
*613 mux_bottom_track_35\.mux_2level_tapbuf_basis_input2_mem1_1_out
*614 mux_bottom_track_35\.out
*615 mux_bottom_track_37\.INVTX1_0_\.out
*616 mux_bottom_track_37\.mux_2level_tapbuf_basis_input2_mem1_0_out
*617 mux_bottom_track_37\.mux_2level_tapbuf_basis_input2_mem1_1_out
*618 mux_bottom_track_37\.mux_2level_tapbuf_basis_input2_mem1_2_out
*619 mux_bottom_track_37\.out
*620 mux_bottom_track_5\.INVTX1_0_\.out
*621 mux_bottom_track_5\.mux_2level_tapbuf_basis_input2_mem1_0_out
*622 mux_bottom_track_5\.mux_2level_tapbuf_basis_input2_mem1_1_out
*623 mux_bottom_track_5\.mux_2level_tapbuf_basis_input2_mem1_2_out
*624 mux_bottom_track_5\.out
*625 mux_bottom_track_7\.INVTX1_0_\.out
*626 mux_bottom_track_7\.mux_2level_tapbuf_basis_input2_mem1_0_out
*627 mux_bottom_track_7\.mux_2level_tapbuf_basis_input2_mem1_1_out
*628 mux_bottom_track_7\.mux_2level_tapbuf_basis_input2_mem1_2_out
*629 mux_bottom_track_7\.out
*630 mux_bottom_track_9\.INVTX1_0_\.out
*631 mux_bottom_track_9\.mux_2level_tapbuf_basis_input2_mem1_0_out
*632 mux_bottom_track_9\.mux_2level_tapbuf_basis_input2_mem1_1_out
*633 mux_bottom_track_9\.mux_2level_tapbuf_basis_input2_mem1_2_out
*634 mux_bottom_track_9\.out
*635 mux_right_track_0\.INVTX1_0_\.out
*636 mux_right_track_0\.INVTX1_1_\.out
*637 mux_right_track_0\.INVTX1_2_\.out
*638 mux_right_track_0\.mux_2level_tapbuf_basis_input2_mem1_0_out
*639 mux_right_track_0\.mux_2level_tapbuf_basis_input2_mem1_1_out
*640 mux_right_track_0\.mux_2level_tapbuf_basis_input2_mem1_2_out
*641 mux_right_track_0\.out
*642 mux_right_track_10\.INVTX1_0_\.out
*643 mux_right_track_10\.INVTX1_1_\.out
*644 mux_right_track_10\.INVTX1_2_\.out
*645 mux_right_track_10\.mux_2level_tapbuf_basis_input2_mem1_0_out
*646 mux_right_track_10\.mux_2level_tapbuf_basis_input2_mem1_1_out
*647 mux_right_track_10\.mux_2level_tapbuf_basis_input2_mem1_2_out
*648 mux_right_track_10\.out
*649 mux_right_track_12\.INVTX1_1_\.out
*650 mux_right_track_12\.INVTX1_2_\.out
*651 mux_right_track_12\.mux_2level_tapbuf_basis_input2_mem1_0_out
*652 mux_right_track_12\.mux_2level_tapbuf_basis_input2_mem1_1_out
*653 mux_right_track_12\.mux_2level_tapbuf_basis_input2_mem1_2_out
*654 mux_right_track_12\.out
*655 mux_right_track_14\.INVTX1_1_\.out
*656 mux_right_track_14\.INVTX1_2_\.out
*657 mux_right_track_14\.mux_2level_tapbuf_basis_input2_mem1_0_out
*658 mux_right_track_14\.mux_2level_tapbuf_basis_input2_mem1_1_out
*659 mux_right_track_14\.mux_2level_tapbuf_basis_input2_mem1_2_out
*660 mux_right_track_14\.out
*661 mux_right_track_16\.INVTX1_1_\.out
*662 mux_right_track_16\.INVTX1_2_\.out
*663 mux_right_track_16\.mux_2level_tapbuf_basis_input2_mem1_0_out
*664 mux_right_track_16\.mux_2level_tapbuf_basis_input2_mem1_1_out
*665 mux_right_track_16\.mux_2level_tapbuf_basis_input2_mem1_2_out
*666 mux_right_track_16\.out
*667 mux_right_track_18\.INVTX1_2_\.out
*668 mux_right_track_18\.mux_2level_tapbuf_basis_input2_mem1_0_out
*669 mux_right_track_18\.mux_2level_tapbuf_basis_input2_mem1_1_out
*670 mux_right_track_18\.mux_2level_tapbuf_basis_input2_mem1_2_out
*671 mux_right_track_18\.out
*672 mux_right_track_2\.INVTX1_1_\.out
*673 mux_right_track_2\.INVTX1_2_\.out
*674 mux_right_track_2\.mux_2level_tapbuf_basis_input2_mem1_0_out
*675 mux_right_track_2\.mux_2level_tapbuf_basis_input2_mem1_1_out
*676 mux_right_track_2\.mux_2level_tapbuf_basis_input2_mem1_2_out
*677 mux_right_track_2\.out
*678 mux_right_track_20\.INVTX1_1_\.out
*679 mux_right_track_20\.mux_2level_tapbuf_basis_input2_mem1_0_out
*680 mux_right_track_20\.mux_2level_tapbuf_basis_input2_mem1_1_out
*681 mux_right_track_20\.out
*682 mux_right_track_22\.INVTX1_1_\.out
*683 mux_right_track_22\.mux_2level_tapbuf_basis_input2_mem1_0_out
*684 mux_right_track_22\.mux_2level_tapbuf_basis_input2_mem1_1_out
*685 mux_right_track_22\.out
*686 mux_right_track_24\.INVTX1_0_\.out
*687 mux_right_track_24\.INVTX1_1_\.out
*688 mux_right_track_24\.mux_2level_tapbuf_basis_input2_mem1_0_out
*689 mux_right_track_24\.mux_2level_tapbuf_basis_input2_mem1_1_out
*690 mux_right_track_24\.out
*691 mux_right_track_26\.INVTX1_0_\.out
*692 mux_right_track_26\.INVTX1_1_\.out
*693 mux_right_track_26\.mux_2level_tapbuf_basis_input2_mem1_0_out
*694 mux_right_track_26\.mux_2level_tapbuf_basis_input2_mem1_1_out
*695 mux_right_track_26\.out
*696 mux_right_track_28\.INVTX1_1_\.out
*697 mux_right_track_28\.mux_2level_tapbuf_basis_input2_mem1_0_out
*698 mux_right_track_28\.mux_2level_tapbuf_basis_input2_mem1_1_out
*699 mux_right_track_28\.out
*700 mux_right_track_30\.INVTX1_1_\.out
*701 mux_right_track_30\.mux_2level_tapbuf_basis_input2_mem1_0_out
*702 mux_right_track_30\.mux_2level_tapbuf_basis_input2_mem1_1_out
*703 mux_right_track_30\.out
*704 mux_right_track_32\.INVTX1_1_\.out
*705 mux_right_track_32\.mux_2level_tapbuf_basis_input2_mem1_0_out
*706 mux_right_track_32\.mux_2level_tapbuf_basis_input2_mem1_1_out
*707 mux_right_track_32\.out
*708 mux_right_track_34\.INVTX1_1_\.out
*709 mux_right_track_34\.mux_2level_tapbuf_basis_input2_mem1_0_out
*710 mux_right_track_34\.mux_2level_tapbuf_basis_input2_mem1_1_out
*711 mux_right_track_34\.out
*712 mux_right_track_36\.INVTX1_2_\.out
*713 mux_right_track_36\.mux_2level_tapbuf_basis_input2_mem1_0_out
*714 mux_right_track_36\.mux_2level_tapbuf_basis_input2_mem1_1_out
*715 mux_right_track_36\.mux_2level_tapbuf_basis_input2_mem1_2_out
*716 mux_right_track_36\.out
*717 mux_right_track_4\.INVTX1_2_\.out
*718 mux_right_track_4\.mux_2level_tapbuf_basis_input2_mem1_0_out
*719 mux_right_track_4\.mux_2level_tapbuf_basis_input2_mem1_1_out
*720 mux_right_track_4\.mux_2level_tapbuf_basis_input2_mem1_2_out
*721 mux_right_track_4\.out
*722 mux_right_track_6\.INVTX1_2_\.out
*723 mux_right_track_6\.mux_2level_tapbuf_basis_input2_mem1_0_out
*724 mux_right_track_6\.mux_2level_tapbuf_basis_input2_mem1_1_out
*725 mux_right_track_6\.mux_2level_tapbuf_basis_input2_mem1_2_out
*726 mux_right_track_6\.out
*727 mux_right_track_8\.INVTX1_2_\.out
*728 mux_right_track_8\.mux_2level_tapbuf_basis_input2_mem1_0_out
*729 mux_right_track_8\.mux_2level_tapbuf_basis_input2_mem1_1_out
*730 mux_right_track_8\.mux_2level_tapbuf_basis_input2_mem1_2_out
*731 mux_right_track_8\.out
*732 net1
*733 net10
*734 net100
*735 net101
*736 net102
*737 net103
*738 net104
*739 net105
*740 net106
*741 net107
*742 net108
*743 net109
*744 net11
*745 net110
*746 net111
*747 net112
*748 net113
*749 net114
*750 net115
*751 net116
*752 net117
*753 net118
*754 net119
*755 net12
*756 net120
*757 net121
*758 net122
*759 net123
*760 net124
*761 net125
*762 net126
*763 net127
*764 net128
*765 net129
*766 net13
*767 net130
*768 net131
*769 net132
*770 net133
*771 net134
*772 net135
*773 net136
*774 net14
*775 net15
*776 net16
*777 net17
*778 net18
*779 net19
*780 net2
*781 net20
*782 net21
*783 net22
*784 net23
*785 net24
*786 net25
*787 net26
*788 net27
*789 net28
*790 net29
*791 net3
*792 net30
*793 net31
*794 net32
*795 net33
*796 net34
*797 net35
*798 net36
*799 net37
*800 net38
*801 net39
*802 net4
*803 net40
*804 net41
*805 net42
*806 net43
*807 net44
*808 net45
*809 net46
*810 net47
*811 net48
*812 net49
*813 net5
*814 net50
*815 net51
*816 net52
*817 net53
*818 net54
*819 net55
*820 net56
*821 net57
*822 net58
*823 net59
*824 net6
*825 net60
*826 net61
*827 net62
*828 net63
*829 net64
*830 net65
*831 net66
*832 net67
*833 net68
*834 net69
*835 net7
*836 net70
*837 net71
*838 net72
*839 net73
*840 net74
*841 net75
*842 net76
*843 net77
*844 net78
*845 net79
*846 net8
*847 net80
*848 net81
*849 net82
*850 net83
*851 net84
*852 net85
*853 net86
*854 net87
*855 net88
*856 net89
*857 net9
*858 net90
*859 net91
*860 net92
*861 net93
*862 net94
*863 net95
*864 net96
*865 net97
*866 net98
*867 net99
*868 ANTENNA_1
*869 ANTENNA_2
*870 ANTENNA_3
*871 ANTENNA_4
*872 ANTENNA_5
*873 ANTENNA_6
*874 FILLER_0_104
*875 FILLER_0_113
*876 FILLER_0_121
*877 FILLER_0_125
*878 FILLER_0_137
*879 FILLER_0_141
*880 FILLER_0_147
*881 FILLER_0_155
*882 FILLER_0_160
*883 FILLER_0_169
*884 FILLER_0_175
*885 FILLER_0_187
*886 FILLER_0_194
*887 FILLER_0_197
*888 FILLER_0_20
*889 FILLER_0_205
*890 FILLER_0_210
*891 FILLER_0_222
*892 FILLER_0_225
*893 FILLER_0_230
*894 FILLER_0_238
*895 FILLER_0_245
*896 FILLER_0_251
*897 FILLER_0_253
*898 FILLER_0_258
*899 FILLER_0_270
*900 FILLER_0_278
*901 FILLER_0_281
*902 FILLER_0_286
*903 FILLER_0_29
*904 FILLER_0_293
*905 FILLER_0_3
*906 FILLER_0_305
*907 FILLER_0_309
*908 FILLER_0_314
*909 FILLER_0_322
*910 FILLER_0_328
*911 FILLER_0_337
*912 FILLER_0_342
*913 FILLER_0_354
*914 FILLER_0_362
*915 FILLER_0_365
*916 FILLER_0_37
*917 FILLER_0_370
*918 FILLER_0_377
*919 FILLER_0_385
*920 FILLER_0_390
*921 FILLER_0_393
*922 FILLER_0_399
*923 FILLER_0_42
*924 FILLER_0_54
*925 FILLER_0_57
*926 FILLER_0_63
*927 FILLER_0_71
*928 FILLER_0_77
*929 FILLER_0_83
*930 FILLER_0_85
*931 FILLER_0_9
*932 FILLER_0_91
*933 FILLER_0_99
*934 FILLER_10_102
*935 FILLER_10_109
*936 FILLER_10_121
*937 FILLER_10_125
*938 FILLER_10_129
*939 FILLER_10_133
*940 FILLER_10_139
*941 FILLER_10_141
*942 FILLER_10_15
*943 FILLER_10_153
*944 FILLER_10_160
*945 FILLER_10_173
*946 FILLER_10_177
*947 FILLER_10_181
*948 FILLER_10_188
*949 FILLER_10_197
*950 FILLER_10_209
*951 FILLER_10_221
*952 FILLER_10_233
*953 FILLER_10_245
*954 FILLER_10_250
*955 FILLER_10_253
*956 FILLER_10_264
*957 FILLER_10_27
*958 FILLER_10_276
*959 FILLER_10_280
*960 FILLER_10_29
*961 FILLER_10_292
*962 FILLER_10_3
*963 FILLER_10_303
*964 FILLER_10_307
*965 FILLER_10_309
*966 FILLER_10_321
*967 FILLER_10_333
*968 FILLER_10_345
*969 FILLER_10_357
*970 FILLER_10_363
*971 FILLER_10_365
*972 FILLER_10_377
*973 FILLER_10_389
*974 FILLER_10_401
*975 FILLER_10_41
*976 FILLER_10_48
*977 FILLER_10_60
*978 FILLER_10_72
*979 FILLER_10_85
*980 FILLER_10_91
*981 FILLER_10_95
*982 FILLER_11_105
*983 FILLER_11_111
*984 FILLER_11_113
*985 FILLER_11_125
*986 FILLER_11_131
*987 FILLER_11_152
*988 FILLER_11_159
*989 FILLER_11_166
*990 FILLER_11_169
*991 FILLER_11_174
*992 FILLER_11_186
*993 FILLER_11_193
*994 FILLER_11_202
*995 FILLER_11_21
*996 FILLER_11_214
*997 FILLER_11_222
*998 FILLER_11_225
*999 FILLER_11_233
*1000 FILLER_11_239
*1001 FILLER_11_243
*1002 FILLER_11_247
*1003 FILLER_11_259
*1004 FILLER_11_269
*1005 FILLER_11_276
*1006 FILLER_11_281
*1007 FILLER_11_293
*1008 FILLER_11_3
*1009 FILLER_11_305
*1010 FILLER_11_317
*1011 FILLER_11_329
*1012 FILLER_11_33
*1013 FILLER_11_335
*1014 FILLER_11_337
*1015 FILLER_11_349
*1016 FILLER_11_361
*1017 FILLER_11_373
*1018 FILLER_11_385
*1019 FILLER_11_391
*1020 FILLER_11_393
*1021 FILLER_11_405
*1022 FILLER_11_45
*1023 FILLER_11_54
*1024 FILLER_11_57
*1025 FILLER_11_62
*1026 FILLER_11_74
*1027 FILLER_11_81
*1028 FILLER_11_9
*1029 FILLER_11_93
*1030 FILLER_12_109
*1031 FILLER_12_121
*1032 FILLER_12_133
*1033 FILLER_12_139
*1034 FILLER_12_141
*1035 FILLER_12_15
*1036 FILLER_12_156
*1037 FILLER_12_163
*1038 FILLER_12_170
*1039 FILLER_12_177
*1040 FILLER_12_190
*1041 FILLER_12_197
*1042 FILLER_12_209
*1043 FILLER_12_216
*1044 FILLER_12_224
*1045 FILLER_12_235
*1046 FILLER_12_248
*1047 FILLER_12_253
*1048 FILLER_12_261
*1049 FILLER_12_265
*1050 FILLER_12_27
*1051 FILLER_12_271
*1052 FILLER_12_275
*1053 FILLER_12_29
*1054 FILLER_12_290
*1055 FILLER_12_3
*1056 FILLER_12_302
*1057 FILLER_12_309
*1058 FILLER_12_321
*1059 FILLER_12_333
*1060 FILLER_12_345
*1061 FILLER_12_357
*1062 FILLER_12_363
*1063 FILLER_12_365
*1064 FILLER_12_377
*1065 FILLER_12_389
*1066 FILLER_12_40
*1067 FILLER_12_405
*1068 FILLER_12_49
*1069 FILLER_12_56
*1070 FILLER_12_63
*1071 FILLER_12_71
*1072 FILLER_12_75
*1073 FILLER_12_83
*1074 FILLER_12_85
*1075 FILLER_12_97
*1076 FILLER_13_110
*1077 FILLER_13_113
*1078 FILLER_13_138
*1079 FILLER_13_162
*1080 FILLER_13_169
*1081 FILLER_13_173
*1082 FILLER_13_183
*1083 FILLER_13_190
*1084 FILLER_13_197
*1085 FILLER_13_204
*1086 FILLER_13_220
*1087 FILLER_13_225
*1088 FILLER_13_230
*1089 FILLER_13_234
*1090 FILLER_13_238
*1091 FILLER_13_246
*1092 FILLER_13_25
*1093 FILLER_13_257
*1094 FILLER_13_264
*1095 FILLER_13_276
*1096 FILLER_13_281
*1097 FILLER_13_286
*1098 FILLER_13_29
*1099 FILLER_13_293
*1100 FILLER_13_3
*1101 FILLER_13_301
*1102 FILLER_13_306
*1103 FILLER_13_318
*1104 FILLER_13_330
*1105 FILLER_13_337
*1106 FILLER_13_349
*1107 FILLER_13_361
*1108 FILLER_13_373
*1109 FILLER_13_385
*1110 FILLER_13_391
*1111 FILLER_13_393
*1112 FILLER_13_405
*1113 FILLER_13_50
*1114 FILLER_13_57
*1115 FILLER_13_61
*1116 FILLER_13_83
*1117 FILLER_14_115
*1118 FILLER_14_127
*1119 FILLER_14_139
*1120 FILLER_14_141
*1121 FILLER_14_153
*1122 FILLER_14_165
*1123 FILLER_14_177
*1124 FILLER_14_184
*1125 FILLER_14_193
*1126 FILLER_14_197
*1127 FILLER_14_205
*1128 FILLER_14_214
*1129 FILLER_14_222
*1130 FILLER_14_232
*1131 FILLER_14_238
*1132 FILLER_14_242
*1133 FILLER_14_250
*1134 FILLER_14_253
*1135 FILLER_14_26
*1136 FILLER_14_264
*1137 FILLER_14_277
*1138 FILLER_14_289
*1139 FILLER_14_29
*1140 FILLER_14_3
*1141 FILLER_14_301
*1142 FILLER_14_307
*1143 FILLER_14_309
*1144 FILLER_14_321
*1145 FILLER_14_330
*1146 FILLER_14_34
*1147 FILLER_14_342
*1148 FILLER_14_349
*1149 FILLER_14_361
*1150 FILLER_14_365
*1151 FILLER_14_377
*1152 FILLER_14_389
*1153 FILLER_14_401
*1154 FILLER_14_46
*1155 FILLER_14_70
*1156 FILLER_14_82
*1157 FILLER_14_85
*1158 FILLER_14_93
*1159 FILLER_15_109
*1160 FILLER_15_113
*1161 FILLER_15_125
*1162 FILLER_15_137
*1163 FILLER_15_158
*1164 FILLER_15_162
*1165 FILLER_15_166
*1166 FILLER_15_169
*1167 FILLER_15_182
*1168 FILLER_15_189
*1169 FILLER_15_195
*1170 FILLER_15_205
*1171 FILLER_15_21
*1172 FILLER_15_217
*1173 FILLER_15_223
*1174 FILLER_15_225
*1175 FILLER_15_245
*1176 FILLER_15_252
*1177 FILLER_15_259
*1178 FILLER_15_266
*1179 FILLER_15_278
*1180 FILLER_15_281
*1181 FILLER_15_286
*1182 FILLER_15_298
*1183 FILLER_15_3
*1184 FILLER_15_310
*1185 FILLER_15_322
*1186 FILLER_15_326
*1187 FILLER_15_33
*1188 FILLER_15_334
*1189 FILLER_15_337
*1190 FILLER_15_349
*1191 FILLER_15_361
*1192 FILLER_15_373
*1193 FILLER_15_385
*1194 FILLER_15_391
*1195 FILLER_15_393
*1196 FILLER_15_401
*1197 FILLER_15_405
*1198 FILLER_15_45
*1199 FILLER_15_53
*1200 FILLER_15_57
*1201 FILLER_15_63
*1202 FILLER_15_85
*1203 FILLER_15_9
*1204 FILLER_15_97
*1205 FILLER_16_119
*1206 FILLER_16_131
*1207 FILLER_16_139
*1208 FILLER_16_141
*1209 FILLER_16_149
*1210 FILLER_16_15
*1211 FILLER_16_154
*1212 FILLER_16_161
*1213 FILLER_16_171
*1214 FILLER_16_186
*1215 FILLER_16_193
*1216 FILLER_16_197
*1217 FILLER_16_202
*1218 FILLER_16_219
*1219 FILLER_16_226
*1220 FILLER_16_234
*1221 FILLER_16_238
*1222 FILLER_16_245
*1223 FILLER_16_251
*1224 FILLER_16_253
*1225 FILLER_16_257
*1226 FILLER_16_266
*1227 FILLER_16_27
*1228 FILLER_16_273
*1229 FILLER_16_285
*1230 FILLER_16_29
*1231 FILLER_16_292
*1232 FILLER_16_3
*1233 FILLER_16_304
*1234 FILLER_16_309
*1235 FILLER_16_321
*1236 FILLER_16_327
*1237 FILLER_16_331
*1238 FILLER_16_343
*1239 FILLER_16_355
*1240 FILLER_16_363
*1241 FILLER_16_365
*1242 FILLER_16_377
*1243 FILLER_16_389
*1244 FILLER_16_401
*1245 FILLER_16_41
*1246 FILLER_16_63
*1247 FILLER_16_75
*1248 FILLER_16_83
*1249 FILLER_16_85
*1250 FILLER_16_97
*1251 FILLER_17_108
*1252 FILLER_17_113
*1253 FILLER_17_136
*1254 FILLER_17_140
*1255 FILLER_17_146
*1256 FILLER_17_15
*1257 FILLER_17_150
*1258 FILLER_17_157
*1259 FILLER_17_166
*1260 FILLER_17_169
*1261 FILLER_17_176
*1262 FILLER_17_189
*1263 FILLER_17_202
*1264 FILLER_17_214
*1265 FILLER_17_222
*1266 FILLER_17_225
*1267 FILLER_17_237
*1268 FILLER_17_248
*1269 FILLER_17_260
*1270 FILLER_17_27
*1271 FILLER_17_273
*1272 FILLER_17_279
*1273 FILLER_17_281
*1274 FILLER_17_291
*1275 FILLER_17_3
*1276 FILLER_17_303
*1277 FILLER_17_315
*1278 FILLER_17_327
*1279 FILLER_17_335
*1280 FILLER_17_337
*1281 FILLER_17_342
*1282 FILLER_17_354
*1283 FILLER_17_366
*1284 FILLER_17_378
*1285 FILLER_17_390
*1286 FILLER_17_393
*1287 FILLER_17_401
*1288 FILLER_17_405
*1289 FILLER_17_51
*1290 FILLER_17_55
*1291 FILLER_17_57
*1292 FILLER_17_69
*1293 FILLER_17_75