*SPEF "ieee 1481-1999"
*DESIGN "sb_0__0_"
*DATE "11:11:11 Fri 11 11, 1111"
*VENDOR "OpenRCX"
*PROGRAM "Parallel Extraction"
*VERSION "1.0"
*DESIGN_FLOW "NAME_SCOPE LOCAL" "PIN_CAP NONE"
*DIVIDER /
*DELIMITER :
*BUS_DELIMITER []
*T_UNIT 1 NS
*C_UNIT 1 PF
*R_UNIT 1 OHM
*L_UNIT 1 HENRY

*NAME_MAP
*1 ccff_head
*2 ccff_tail
*3 chanx_right_in[0]
*4 chanx_right_in[10]
*5 chanx_right_in[11]
*6 chanx_right_in[12]
*7 chanx_right_in[13]
*8 chanx_right_in[14]
*9 chanx_right_in[15]
*10 chanx_right_in[16]
*11 chanx_right_in[17]
*12 chanx_right_in[18]
*13 chanx_right_in[1]
*14 chanx_right_in[2]
*15 chanx_right_in[3]
*16 chanx_right_in[4]
*17 chanx_right_in[5]
*18 chanx_right_in[6]
*19 chanx_right_in[7]
*20 chanx_right_in[8]
*21 chanx_right_in[9]
*22 chanx_right_out[0]
*23 chanx_right_out[10]
*24 chanx_right_out[11]
*25 chanx_right_out[12]
*26 chanx_right_out[13]
*27 chanx_right_out[14]
*28 chanx_right_out[15]
*29 chanx_right_out[16]
*30 chanx_right_out[17]
*31 chanx_right_out[18]
*32 chanx_right_out[1]
*33 chanx_right_out[2]
*34 chanx_right_out[3]
*35 chanx_right_out[4]
*36 chanx_right_out[5]
*37 chanx_right_out[6]
*38 chanx_right_out[7]
*39 chanx_right_out[8]
*40 chanx_right_out[9]
*41 chany_top_in[0]
*42 chany_top_in[10]
*43 chany_top_in[11]
*44 chany_top_in[12]
*45 chany_top_in[13]
*46 chany_top_in[14]
*47 chany_top_in[15]
*48 chany_top_in[16]
*49 chany_top_in[17]
*50 chany_top_in[18]
*51 chany_top_in[1]
*52 chany_top_in[2]
*53 chany_top_in[3]
*54 chany_top_in[4]
*55 chany_top_in[5]
*56 chany_top_in[6]
*57 chany_top_in[7]
*58 chany_top_in[8]
*59 chany_top_in[9]
*60 chany_top_out[0]
*61 chany_top_out[10]
*62 chany_top_out[11]
*63 chany_top_out[12]
*64 chany_top_out[13]
*65 chany_top_out[14]
*66 chany_top_out[15]
*67 chany_top_out[16]
*68 chany_top_out[17]
*69 chany_top_out[18]
*70 chany_top_out[1]
*71 chany_top_out[2]
*72 chany_top_out[3]
*73 chany_top_out[4]
*74 chany_top_out[5]
*75 chany_top_out[6]
*76 chany_top_out[7]
*77 chany_top_out[8]
*78 chany_top_out[9]
*79 pReset
*80 prog_clk
*81 right_bottom_grid_top_width_0_height_0_subtile_0__pin_inpad_0_
*82 right_bottom_grid_top_width_0_height_0_subtile_1__pin_inpad_0_
*83 right_bottom_grid_top_width_0_height_0_subtile_2__pin_inpad_0_
*84 right_bottom_grid_top_width_0_height_0_subtile_3__pin_inpad_0_
*85 right_bottom_grid_top_width_0_height_0_subtile_4__pin_inpad_0_
*86 right_bottom_grid_top_width_0_height_0_subtile_5__pin_inpad_0_
*87 right_bottom_grid_top_width_0_height_0_subtile_6__pin_inpad_0_
*88 right_bottom_grid_top_width_0_height_0_subtile_7__pin_inpad_0_
*89 right_top_grid_bottom_width_0_height_0_subtile_0__pin_O_2_
*90 right_top_grid_bottom_width_0_height_0_subtile_0__pin_O_6_
*91 top_left_grid_right_width_0_height_0_subtile_0__pin_inpad_0_
*92 top_left_grid_right_width_0_height_0_subtile_1__pin_inpad_0_
*93 top_left_grid_right_width_0_height_0_subtile_2__pin_inpad_0_
*94 top_left_grid_right_width_0_height_0_subtile_3__pin_inpad_0_
*95 top_left_grid_right_width_0_height_0_subtile_4__pin_inpad_0_
*96 top_left_grid_right_width_0_height_0_subtile_5__pin_inpad_0_
*97 top_left_grid_right_width_0_height_0_subtile_6__pin_inpad_0_
*98 top_left_grid_right_width_0_height_0_subtile_7__pin_inpad_0_
*99 top_right_grid_left_width_0_height_0_subtile_0__pin_O_3_
*100 top_right_grid_left_width_0_height_0_subtile_0__pin_O_7_
*103 _0000_
*104 _0001_
*105 _0002_
*106 _0003_
*107 _0004_
*108 _0005_
*109 _0006_
*110 _0007_
*111 _0008_
*112 _0009_
*113 _0010_
*114 _0011_
*115 _0012_
*116 _0013_
*117 _0014_
*118 _0015_
*119 _0016_
*120 _0017_
*121 _0018_
*122 _0019_
*123 _0020_
*124 _0021_
*125 _0022_
*126 _0023_
*127 _0024_
*128 _0025_
*129 _0026_
*130 _0027_
*131 _0028_
*132 _0029_
*133 _0030_
*134 _0031_
*135 _0032_
*136 _0033_
*137 _0034_
*138 _0035_
*139 _0036_
*140 _0037_
*141 _0038_
*142 _0039_
*143 _0040_
*144 _0041_
*145 _0042_
*146 _0043_
*147 _0044_
*148 _0045_
*149 _0046_
*150 _0047_
*151 _0048_
*152 _0049_
*153 _0050_
*154 _0051_
*155 _0052_
*156 _0053_
*157 _0054_
*158 _0055_
*159 _0056_
*160 _0057_
*161 _0058_
*162 _0059_
*163 _0060_
*164 _0061_
*165 _0062_
*166 _0063_
*167 _0064_
*168 _0065_
*169 _0066_
*170 _0067_
*171 _0068_
*172 _0069_
*173 _0070_
*174 _0071_
*175 _0072_
*176 _0073_
*177 _0074_
*178 _0075_
*179 _0076_
*180 _0077_
*181 _0078_
*182 _0079_
*183 _0080_
*184 _0081_
*185 _0082_
*186 _0083_
*187 _0084_
*188 _0085_
*189 _0086_
*190 _0087_
*191 _0088_
*192 _0089_
*193 _0090_
*194 _0091_
*195 _0092_
*196 _0093_
*197 _0094_
*198 _0095_
*199 _0096_
*200 _0097_
*201 _0098_
*202 _0099_
*203 _0100_
*204 _0101_
*205 _0102_
*206 _0103_
*207 _0104_
*208 _0105_
*209 _0106_
*210 _0107_
*211 _0108_
*212 _0109_
*213 _0110_
*214 _0111_
*215 _0112_
*216 _0113_
*217 _0114_
*218 _0115_
*219 _0116_
*220 _0117_
*221 _0118_
*222 _0119_
*223 _0120_
*224 _0121_
*225 _0122_
*226 _0123_
*227 _0124_
*228 _0125_
*229 _0126_
*230 _0127_
*231 _0128_
*232 _0129_
*233 _0130_
*234 _0131_
*235 _0132_
*236 _0133_
*237 _0134_
*238 _0135_
*239 _0136_
*240 _0137_
*241 _0138_
*242 _0139_
*243 _0140_
*244 _0141_
*245 _0142_
*246 _0143_
*247 _0144_
*248 _0145_
*249 _0146_
*250 _0147_
*251 _0148_
*252 _0149_
*253 _0150_
*254 _0151_
*255 _0152_
*256 _0153_
*257 _0154_
*258 _0155_
*259 _0156_
*260 _0157_
*261 _0158_
*262 _0159_
*263 _0160_
*264 _0161_
*265 _0162_
*266 _0163_
*267 _0164_
*268 _0165_
*269 _0166_
*270 _0167_
*271 _0168_
*272 _0169_
*273 _0170_
*274 _0171_
*275 _0172_
*276 _0173_
*277 _0174_
*278 _0175_
*279 _0176_
*280 _0177_
*281 _0178_
*282 _0179_
*283 _0180_
*284 _0181_
*285 _0182_
*286 _0183_
*287 _0184_
*288 _0185_
*289 _0186_
*290 _0187_
*291 _0188_
*292 _0189_
*293 _0190_
*294 _0191_
*295 _0192_
*296 _0193_
*297 _0194_
*298 _0195_
*299 _0196_
*300 _0197_
*301 _0198_
*302 _0199_
*303 _0200_
*304 _0201_
*305 _0202_
*306 _0203_
*307 _0204_
*308 _0205_
*309 _0206_
*310 _0207_
*311 _0208_
*312 _0209_
*313 _0210_
*314 _0211_
*315 _0212_
*316 _0213_
*317 _0214_
*318 _0215_
*319 _0216_
*320 _0217_
*321 _0218_
*322 _0219_
*323 _0220_
*324 _0221_
*325 _0222_
*326 _0223_
*327 _0224_
*328 _0225_
*329 _0226_
*330 _0227_
*331 _0228_
*332 _0229_
*333 _0230_
*334 _0231_
*335 _0232_
*336 _0233_
*337 _0234_
*338 _0235_
*339 _0236_
*340 _0237_
*341 _0238_
*342 _0239_
*343 _0240_
*344 _0241_
*345 _0242_
*346 _0243_
*347 _0244_
*348 _0245_
*349 _0246_
*350 _0247_
*351 _0248_
*352 _0249_
*353 _0250_
*354 _0251_
*355 _0252_
*356 _0253_
*357 _0254_
*358 _0255_
*359 _0256_
*360 _0257_
*361 _0258_
*362 _0259_
*363 _0260_
*364 _0261_
*365 _0262_
*366 _0263_
*367 _0264_
*368 _0265_
*369 _0266_
*370 _0267_
*371 _0268_
*372 _0269_
*373 _0270_
*374 _0271_
*375 _0272_
*376 _0273_
*377 _0274_
*378 _0275_
*379 _0276_
*380 _0277_
*381 _0278_
*382 _0279_
*383 _0280_
*384 _0281_
*385 _0282_
*386 _0283_
*387 _0284_
*388 _0285_
*389 _0286_
*390 _0287_
*391 _0288_
*392 _0289_
*393 _0290_
*394 _0291_
*395 _0292_
*396 _0293_
*397 _0294_
*398 _0295_
*399 _0296_
*400 _0297_
*401 _0298_
*402 _0299_
*403 _0300_
*404 _0301_
*405 _0302_
*406 _0303_
*407 _0304_
*408 _0305_
*409 _0306_
*410 _0307_
*411 _0308_
*412 _0309_
*413 _0310_
*414 _0311_
*415 _0312_
*416 _0313_
*417 _0314_
*418 _0315_
*419 _0316_
*420 _0317_
*421 _0318_
*422 _0319_
*423 _0320_
*424 _0321_
*425 _0322_
*426 _0323_
*427 _0324_
*428 _0325_
*429 _0326_
*430 _0327_
*431 _0328_
*432 _0329_
*433 _0330_
*434 _0331_
*435 _0332_
*436 _0333_
*437 _0334_
*438 _0335_
*439 _0336_
*440 _0337_
*441 _0338_
*442 _0339_
*443 _0340_
*444 _0341_
*445 _0342_
*446 _0343_
*447 _0344_
*448 _0345_
*449 _0346_
*450 _0347_
*451 _0348_
*452 _0349_
*453 _0350_
*454 _0351_
*455 _0352_
*456 _0353_
*457 _0354_
*458 _0355_
*459 _0356_
*460 _0357_
*461 _0358_
*462 _0359_
*463 _0360_
*464 _0361_
*465 _0362_
*466 _0363_
*467 _0364_
*468 _0365_
*469 _0366_
*470 _0367_
*471 _0368_
*472 _0369_
*473 _0370_
*474 _0371_
*475 mem_right_track_0\.DFFR_0_\.D
*476 mem_right_track_0\.DFFR_0_\.Q
*477 mem_right_track_0\.DFFR_1_\.Q
*478 mem_right_track_10\.DFFR_0_\.D
*479 mem_right_track_10\.DFFR_0_\.Q
*480 mem_right_track_10\.DFFR_1_\.Q
*481 mem_right_track_12\.DFFR_0_\.Q
*482 mem_right_track_12\.DFFR_1_\.Q
*483 mem_right_track_14\.DFFR_0_\.Q
*484 mem_right_track_14\.DFFR_1_\.Q
*485 mem_right_track_16\.DFFR_0_\.Q
*486 mem_right_track_16\.DFFR_1_\.Q
*487 mem_right_track_18\.DFFR_0_\.Q
*488 mem_right_track_18\.DFFR_1_\.Q
*489 mem_right_track_2\.DFFR_0_\.Q
*490 mem_right_track_2\.DFFR_1_\.Q
*491 mem_right_track_20\.DFFR_0_\.Q
*492 mem_right_track_20\.DFFR_1_\.Q
*493 mem_right_track_22\.DFFR_0_\.Q
*494 mem_right_track_22\.DFFR_1_\.Q
*495 mem_right_track_24\.DFFR_0_\.Q
*496 mem_right_track_24\.DFFR_1_\.Q
*497 mem_right_track_26\.DFFR_0_\.Q
*498 mem_right_track_26\.DFFR_1_\.Q
*499 mem_right_track_28\.DFFR_0_\.Q
*500 mem_right_track_28\.DFFR_1_\.Q
*501 mem_right_track_30\.DFFR_0_\.Q
*502 mem_right_track_30\.DFFR_1_\.Q
*503 mem_right_track_32\.DFFR_0_\.Q
*504 mem_right_track_32\.DFFR_1_\.Q
*505 mem_right_track_34\.DFFR_0_\.Q
*506 mem_right_track_34\.DFFR_1_\.Q
*507 mem_right_track_36\.DFFR_0_\.Q
*508 mem_right_track_4\.DFFR_0_\.Q
*509 mem_right_track_4\.DFFR_1_\.Q
*510 mem_right_track_6\.DFFR_0_\.Q
*511 mem_right_track_6\.DFFR_1_\.Q
*512 mem_right_track_8\.DFFR_0_\.Q
*513 mem_top_track_0\.DFFR_0_\.Q
*514 mem_top_track_0\.DFFR_1_\.Q
*515 mem_top_track_10\.DFFR_0_\.D
*516 mem_top_track_10\.DFFR_0_\.Q
*517 mem_top_track_10\.DFFR_1_\.Q
*518 mem_top_track_12\.DFFR_0_\.Q
*519 mem_top_track_12\.DFFR_1_\.Q
*520 mem_top_track_14\.DFFR_0_\.Q
*521 mem_top_track_14\.DFFR_1_\.Q
*522 mem_top_track_16\.DFFR_0_\.Q
*523 mem_top_track_16\.DFFR_1_\.Q
*524 mem_top_track_18\.DFFR_0_\.Q
*525 mem_top_track_18\.DFFR_1_\.Q
*526 mem_top_track_2\.DFFR_0_\.Q
*527 mem_top_track_2\.DFFR_1_\.Q
*528 mem_top_track_20\.DFFR_0_\.Q
*529 mem_top_track_20\.DFFR_1_\.Q
*530 mem_top_track_22\.DFFR_0_\.Q
*531 mem_top_track_22\.DFFR_1_\.Q
*532 mem_top_track_24\.DFFR_0_\.Q
*533 mem_top_track_24\.DFFR_1_\.Q
*534 mem_top_track_26\.DFFR_0_\.Q
*535 mem_top_track_26\.DFFR_1_\.Q
*536 mem_top_track_28\.DFFR_0_\.Q
*537 mem_top_track_28\.DFFR_1_\.Q
*538 mem_top_track_30\.DFFR_0_\.Q
*539 mem_top_track_30\.DFFR_1_\.Q
*540 mem_top_track_32\.DFFR_0_\.Q
*541 mem_top_track_32\.DFFR_1_\.Q
*542 mem_top_track_34\.DFFR_0_\.Q
*543 mem_top_track_34\.DFFR_1_\.Q
*544 mem_top_track_36\.DFFR_0_\.Q
*545 mem_top_track_4\.DFFR_0_\.Q
*546 mem_top_track_4\.DFFR_1_\.Q
*547 mem_top_track_6\.DFFR_0_\.Q
*548 mem_top_track_6\.DFFR_1_\.Q
*549 mem_top_track_8\.DFFR_0_\.Q
*550 mux_right_track_0\.INVTX1_0_\.out
*551 mux_right_track_0\.INVTX1_1_\.out
*552 mux_right_track_0\.INVTX1_2_\.out
*553 mux_right_track_0\.mux_2level_tapbuf_basis_input2_mem1_0_out
*554 mux_right_track_0\.mux_2level_tapbuf_basis_input2_mem1_1_out
*555 mux_right_track_0\.mux_2level_tapbuf_basis_input2_mem1_2_out
*556 mux_right_track_0\.out
*557 mux_right_track_10\.INVTX1_0_\.out
*558 mux_right_track_10\.INVTX1_1_\.out
*559 mux_right_track_10\.INVTX1_2_\.out
*560 mux_right_track_10\.mux_2level_tapbuf_basis_input2_mem1_0_out
*561 mux_right_track_10\.mux_2level_tapbuf_basis_input2_mem1_1_out
*562 mux_right_track_10\.mux_2level_tapbuf_basis_input2_mem1_2_out
*563 mux_right_track_10\.out
*564 mux_right_track_12\.INVTX1_0_\.out
*565 mux_right_track_12\.INVTX1_2_\.out
*566 mux_right_track_12\.mux_2level_tapbuf_basis_input2_mem1_0_out
*567 mux_right_track_12\.mux_2level_tapbuf_basis_input2_mem1_1_out
*568 mux_right_track_12\.mux_2level_tapbuf_basis_input2_mem1_2_out
*569 mux_right_track_12\.out
*570 mux_right_track_14\.INVTX1_0_\.out
*571 mux_right_track_14\.INVTX1_2_\.out
*572 mux_right_track_14\.mux_2level_tapbuf_basis_input2_mem1_0_out
*573 mux_right_track_14\.mux_2level_tapbuf_basis_input2_mem1_1_out
*574 mux_right_track_14\.mux_2level_tapbuf_basis_input2_mem1_2_out
*575 mux_right_track_14\.out
*576 mux_right_track_16\.INVTX1_0_\.out
*577 mux_right_track_16\.INVTX1_2_\.out
*578 mux_right_track_16\.mux_2level_tapbuf_basis_input2_mem1_0_out
*579 mux_right_track_16\.mux_2level_tapbuf_basis_input2_mem1_1_out
*580 mux_right_track_16\.mux_2level_tapbuf_basis_input2_mem1_2_out
*581 mux_right_track_16\.out
*582 mux_right_track_18\.INVTX1_0_\.out
*583 mux_right_track_18\.mux_2level_tapbuf_basis_input2_mem1_0_out
*584 mux_right_track_18\.mux_2level_tapbuf_basis_input2_mem1_1_out
*585 mux_right_track_18\.mux_2level_tapbuf_basis_input2_mem1_2_out
*586 mux_right_track_18\.out
*587 mux_right_track_2\.INVTX1_0_\.out
*588 mux_right_track_2\.INVTX1_2_\.out
*589 mux_right_track_2\.mux_2level_tapbuf_basis_input2_mem1_0_out
*590 mux_right_track_2\.mux_2level_tapbuf_basis_input2_mem1_1_out
*591 mux_right_track_2\.mux_2level_tapbuf_basis_input2_mem1_2_out
*592 mux_right_track_2\.out
*593 mux_right_track_20\.INVTX1_0_\.out
*594 mux_right_track_20\.mux_2level_tapbuf_basis_input2_mem1_0_out
*595 mux_right_track_20\.mux_2level_tapbuf_basis_input2_mem1_1_out
*596 mux_right_track_20\.out
*597 mux_right_track_22\.INVTX1_0_\.out
*598 mux_right_track_22\.mux_2level_tapbuf_basis_input2_mem1_0_out
*599 mux_right_track_22\.mux_2level_tapbuf_basis_input2_mem1_1_out
*600 mux_right_track_22\.out
*601 mux_right_track_24\.INVTX1_0_\.out
*602 mux_right_track_24\.INVTX1_1_\.out
*603 mux_right_track_24\.mux_2level_tapbuf_basis_input2_mem1_0_out
*604 mux_right_track_24\.mux_2level_tapbuf_basis_input2_mem1_1_out
*605 mux_right_track_24\.out
*606 mux_right_track_26\.INVTX1_0_\.out
*607 mux_right_track_26\.INVTX1_1_\.out
*608 mux_right_track_26\.mux_2level_tapbuf_basis_input2_mem1_0_out
*609 mux_right_track_26\.mux_2level_tapbuf_basis_input2_mem1_1_out
*610 mux_right_track_26\.out
*611 mux_right_track_28\.INVTX1_0_\.out
*612 mux_right_track_28\.mux_2level_tapbuf_basis_input2_mem1_0_out
*613 mux_right_track_28\.mux_2level_tapbuf_basis_input2_mem1_1_out
*614 mux_right_track_28\.out
*615 mux_right_track_30\.INVTX1_0_\.out
*616 mux_right_track_30\.mux_2level_tapbuf_basis_input2_mem1_0_out
*617 mux_right_track_30\.mux_2level_tapbuf_basis_input2_mem1_1_out
*618 mux_right_track_30\.out
*619 mux_right_track_32\.INVTX1_0_\.out
*620 mux_right_track_32\.mux_2level_tapbuf_basis_input2_mem1_0_out
*621 mux_right_track_32\.mux_2level_tapbuf_basis_input2_mem1_1_out
*622 mux_right_track_32\.out
*623 mux_right_track_34\.INVTX1_0_\.out
*624 mux_right_track_34\.mux_2level_tapbuf_basis_input2_mem1_0_out
*625 mux_right_track_34\.mux_2level_tapbuf_basis_input2_mem1_1_out
*626 mux_right_track_34\.out
*627 mux_right_track_36\.INVTX1_0_\.out
*628 mux_right_track_36\.mux_2level_tapbuf_basis_input2_mem1_0_out
*629 mux_right_track_36\.mux_2level_tapbuf_basis_input2_mem1_1_out
*630 mux_right_track_36\.mux_2level_tapbuf_basis_input2_mem1_2_out
*631 mux_right_track_36\.out
*632 mux_right_track_4\.INVTX1_0_\.out
*633 mux_right_track_4\.mux_2level_tapbuf_basis_input2_mem1_0_out
*634 mux_right_track_4\.mux_2level_tapbuf_basis_input2_mem1_1_out
*635 mux_right_track_4\.mux_2level_tapbuf_basis_input2_mem1_2_out
*636 mux_right_track_4\.out
*637 mux_right_track_6\.INVTX1_0_\.out
*638 mux_right_track_6\.mux_2level_tapbuf_basis_input2_mem1_0_out
*639 mux_right_track_6\.mux_2level_tapbuf_basis_input2_mem1_1_out
*640 mux_right_track_6\.mux_2level_tapbuf_basis_input2_mem1_2_out
*641 mux_right_track_6\.out
*642 mux_right_track_8\.INVTX1_0_\.out
*643 mux_right_track_8\.mux_2level_tapbuf_basis_input2_mem1_0_out
*644 mux_right_track_8\.mux_2level_tapbuf_basis_input2_mem1_1_out
*645 mux_right_track_8\.mux_2level_tapbuf_basis_input2_mem1_2_out
*646 mux_right_track_8\.out
*647 mux_top_track_0\.INVTX1_0_\.out
*648 mux_top_track_0\.INVTX1_1_\.out
*649 mux_top_track_0\.INVTX1_2_\.out
*650 mux_top_track_0\.mux_2level_tapbuf_basis_input2_mem1_0_out
*651 mux_top_track_0\.mux_2level_tapbuf_basis_input2_mem1_1_out
*652 mux_top_track_0\.mux_2level_tapbuf_basis_input2_mem1_2_out
*653 mux_top_track_0\.out
*654 mux_top_track_10\.INVTX1_0_\.out
*655 mux_top_track_10\.INVTX1_1_\.out
*656 mux_top_track_10\.INVTX1_2_\.out
*657 mux_top_track_10\.mux_2level_tapbuf_basis_input2_mem1_0_out
*658 mux_top_track_10\.mux_2level_tapbuf_basis_input2_mem1_1_out
*659 mux_top_track_10\.mux_2level_tapbuf_basis_input2_mem1_2_out
*660 mux_top_track_10\.out
*661 mux_top_track_12\.INVTX1_1_\.out
*662 mux_top_track_12\.INVTX1_2_\.out
*663 mux_top_track_12\.mux_2level_tapbuf_basis_input2_mem1_0_out
*664 mux_top_track_12\.mux_2level_tapbuf_basis_input2_mem1_1_out
*665 mux_top_track_12\.mux_2level_tapbuf_basis_input2_mem1_2_out
*666 mux_top_track_12\.out
*667 mux_top_track_14\.INVTX1_1_\.out
*668 mux_top_track_14\.INVTX1_2_\.out
*669 mux_top_track_14\.mux_2level_tapbuf_basis_input2_mem1_0_out
*670 mux_top_track_14\.mux_2level_tapbuf_basis_input2_mem1_1_out
*671 mux_top_track_14\.mux_2level_tapbuf_basis_input2_mem1_2_out
*672 mux_top_track_14\.out
*673 mux_top_track_16\.INVTX1_1_\.out
*674 mux_top_track_16\.mux_2level_tapbuf_basis_input2_mem1_0_out
*675 mux_top_track_16\.mux_2level_tapbuf_basis_input2_mem1_1_out
*676 mux_top_track_16\.out
*677 mux_top_track_18\.INVTX1_1_\.out
*678 mux_top_track_18\.INVTX1_2_\.out
*679 mux_top_track_18\.mux_2level_tapbuf_basis_input2_mem1_0_out
*680 mux_top_track_18\.mux_2level_tapbuf_basis_input2_mem1_1_out
*681 mux_top_track_18\.mux_2level_tapbuf_basis_input2_mem1_2_out
*682 mux_top_track_18\.out
*683 mux_top_track_2\.INVTX1_1_\.out
*684 mux_top_track_2\.INVTX1_2_\.out
*685 mux_top_track_2\.mux_2level_tapbuf_basis_input2_mem1_0_out
*686 mux_top_track_2\.mux_2level_tapbuf_basis_input2_mem1_1_out
*687 mux_top_track_2\.mux_2level_tapbuf_basis_input2_mem1_2_out
*688 mux_top_track_2\.out
*689 mux_top_track_20\.INVTX1_1_\.out
*690 mux_top_track_20\.mux_2level_tapbuf_basis_input2_mem1_0_out
*691 mux_top_track_20\.mux_2level_tapbuf_basis_input2_mem1_1_out
*692 mux_top_track_20\.out
*693 mux_top_track_22\.INVTX1_1_\.out
*694 mux_top_track_22\.mux_2level_tapbuf_basis_input2_mem1_0_out
*695 mux_top_track_22\.mux_2level_tapbuf_basis_input2_mem1_1_out
*696 mux_top_track_22\.out
*697 mux_top_track_24\.INVTX1_0_\.out
*698 mux_top_track_24\.INVTX1_1_\.out
*699 mux_top_track_24\.mux_2level_tapbuf_basis_input2_mem1_0_out
*700 mux_top_track_24\.mux_2level_tapbuf_basis_input2_mem1_1_out
*701 mux_top_track_24\.out
*702 mux_top_track_26\.INVTX1_0_\.out
*703 mux_top_track_26\.INVTX1_1_\.out
*704 mux_top_track_26\.mux_2level_tapbuf_basis_input2_mem1_0_out
*705 mux_top_track_26\.mux_2level_tapbuf_basis_input2_mem1_1_out
*706 mux_top_track_26\.out
*707 mux_top_track_28\.INVTX1_1_\.out
*708 mux_top_track_28\.mux_2level_tapbuf_basis_input2_mem1_0_out
*709 mux_top_track_28\.mux_2level_tapbuf_basis_input2_mem1_1_out
*710 mux_top_track_28\.out
*711 mux_top_track_30\.INVTX1_1_\.out
*712 mux_top_track_30\.mux_2level_tapbuf_basis_input2_mem1_0_out
*713 mux_top_track_30\.mux_2level_tapbuf_basis_input2_mem1_1_out
*714 mux_top_track_30\.out
*715 mux_top_track_32\.INVTX1_1_\.out
*716 mux_top_track_32\.mux_2level_tapbuf_basis_input2_mem1_0_out
*717 mux_top_track_32\.mux_2level_tapbuf_basis_input2_mem1_1_out
*718 mux_top_track_32\.out
*719 mux_top_track_34\.INVTX1_1_\.out
*720 mux_top_track_34\.mux_2level_tapbuf_basis_input2_mem1_0_out
*721 mux_top_track_34\.mux_2level_tapbuf_basis_input2_mem1_1_out
*722 mux_top_track_34\.out
*723 mux_top_track_36\.INVTX1_1_\.out
*724 mux_top_track_36\.mux_2level_tapbuf_basis_input2_mem1_0_out
*725 mux_top_track_36\.mux_2level_tapbuf_basis_input2_mem1_1_out
*726 mux_top_track_36\.out
*727 mux_top_track_4\.INVTX1_2_\.out
*728 mux_top_track_4\.mux_2level_tapbuf_basis_input2_mem1_0_out
*729 mux_top_track_4\.mux_2level_tapbuf_basis_input2_mem1_1_out
*730 mux_top_track_4\.mux_2level_tapbuf_basis_input2_mem1_2_out
*731 mux_top_track_4\.out
*732 mux_top_track_6\.INVTX1_2_\.out
*733 mux_top_track_6\.mux_2level_tapbuf_basis_input2_mem1_0_out
*734 mux_top_track_6\.mux_2level_tapbuf_basis_input2_mem1_1_out
*735 mux_top_track_6\.mux_2level_tapbuf_basis_input2_mem1_2_out
*736 mux_top_track_6\.out
*737 mux_top_track_8\.INVTX1_2_\.out
*738 mux_top_track_8\.mux_2level_tapbuf_basis_input2_mem1_0_out
*739 mux_top_track_8\.mux_2level_tapbuf_basis_input2_mem1_1_out
*740 mux_top_track_8\.mux_2level_tapbuf_basis_input2_mem1_2_out
*741 mux_top_track_8\.out
*742 net1
*743 net10
*744 net100
*745 net101
*746 net102
*747 net103
*748 net104
*749 net105
*750 net106
*751 net107
*752 net108
*753 net109
*754 net11
*755 net110
*756 net111
*757 net112
*758 net113
*759 net114
*760 net115
*761 net116
*762 net117
*763 net118
*764 net119
*765 net12
*766 net120
*767 net121
*768 net122
*769 net123
*770 net124
*771 net125
*772 net126
*773 net127
*774 net128
*775 net129
*776 net13
*777 net130
*778 net131
*779 net132
*780 net133
*781 net134
*782 net135
*783 net136
*784 net137
*785 net14
*786 net15
*787 net16
*788 net17
*789 net18
*790 net19
*791 net2
*792 net20
*793 net21
*794 net22
*795 net23
*796 net24
*797 net25
*798 net26
*799 net27
*800 net28
*801 net29
*802 net3
*803 net30
*804 net31
*805 net32
*806 net33
*807 net34
*808 net35
*809 net36
*810 net37
*811 net38
*812 net39
*813 net4
*814 net40
*815 net41
*816 net42
*817 net43
*818 net44
*819 net45
*820 net46
*821 net47
*822 net48
*823 net49
*824 net5
*825 net50
*826 net51
*827 net52
*828 net53
*829 net54
*830 net55
*831 net56
*832 net57
*833 net58
*834 net59
*835 net6
*836 net60
*837 net61
*838 net62
*839 net63
*840 net64
*841 net65
*842 net66
*843 net67
*844 net68
*845 net69
*846 net7
*847 net70
*848 net71
*849 net72
*850 net73
*851 net74
*852 net75
*853 net76
*854 net77
*855 net78
*856 net79
*857 net8
*858 net80
*859 net81
*860 net82
*861 net83
*862 net84
*863 net85
*864 net86
*865 net87
*866 net88
*867 net89
*868 net9
*869 net90
*870 net91
*871 net92
*872 net93
*873 net94
*874 net95
*875 net96
*876 net97
*877 net98
*878 net99
*879 ANTENNA_1
*880 ANTENNA_2
*881 ANTENNA_3
*882 ANTENNA_4
*883 ANTENNA_5
*884 ANTENNA_6
*885 ANTENNA_7
*886 FILLER_0_110
*887 FILLER_0_113
*888 FILLER_0_136
*889 FILLER_0_141
*890 FILLER_0_163
*891 FILLER_0_167
*892 FILLER_0_169
*893 FILLER_0_174
*894 FILLER_0_181
*895 FILLER_0_189
*896 FILLER_0_194
*897 FILLER_0_197
*898 FILLER_0_202
*899 FILLER_0_208
*900 FILLER_0_212
*901 FILLER_0_217
*902 FILLER_0_223
*903 FILLER_0_225
*904 FILLER_0_230
*905 FILLER_0_237
*906 FILLER_0_245
*907 FILLER_0_251
*908 FILLER_0_253
*909 FILLER_0_258
*910 FILLER_0_26
*911 FILLER_0_270
*912 FILLER_0_278
*913 FILLER_0_281
*914 FILLER_0_286
*915 FILLER_0_29
*916 FILLER_0_294
*917 FILLER_0_3
*918 FILLER_0_306
*919 FILLER_0_309
*920 FILLER_0_314
*921 FILLER_0_322
*922 FILLER_0_329
*923 FILLER_0_335
*924 FILLER_0_337
*925 FILLER_0_342
*926 FILLER_0_354
*927 FILLER_0_362
*928 FILLER_0_365
*929 FILLER_0_370
*930 FILLER_0_377
*931 FILLER_0_385
*932 FILLER_0_390
*933 FILLER_0_393
*934 FILLER_0_399
*935 FILLER_0_54
*936 FILLER_0_57
*937 FILLER_0_82
*938 FILLER_0_85
*939 FILLER_10_118
*940 FILLER_10_125
*941 FILLER_10_129
*942 FILLER_10_138
*943 FILLER_10_141
*944 FILLER_10_151
*945 FILLER_10_157
*946 FILLER_10_161
*947 FILLER_10_173
*948 FILLER_10_180
*949 FILLER_10_187
*950 FILLER_10_194
*951 FILLER_10_197
*952 FILLER_10_209
*953 FILLER_10_213
*954 FILLER_10_225
*955 FILLER_10_229
*956 FILLER_10_236
*957 FILLER_10_243
*958 FILLER_10_251
*959 FILLER_10_253
*960 FILLER_10_26
*961 FILLER_10_265
*962 FILLER_10_277
*963 FILLER_10_29
*964 FILLER_10_292
*965 FILLER_10_3
*966 FILLER_10_304
*967 FILLER_10_309
*968 FILLER_10_321
*969 FILLER_10_333
*970 FILLER_10_34
*971 FILLER_10_345
*972 FILLER_10_357
*973 FILLER_10_363
*974 FILLER_10_365
*975 FILLER_10_377
*976 FILLER_10_389
*977 FILLER_10_401
*978 FILLER_10_41
*979 FILLER_10_47
*980 FILLER_10_69
*981 FILLER_10_77
*982 FILLER_10_82
*983 FILLER_10_85
*984 FILLER_10_89
*985 FILLER_10_93
*986 FILLER_11_108
*987 FILLER_11_113
*988 FILLER_11_135
*989 FILLER_11_146
*990 FILLER_11_153
*991 FILLER_11_166
*992 FILLER_11_169
*993 FILLER_11_184
*994 FILLER_11_191
*995 FILLER_11_203
*996 FILLER_11_207
*997 FILLER_11_219
*998 FILLER_11_223
*999 FILLER_11_225
*1000 FILLER_11_237
*1001 FILLER_11_249
*1002 FILLER_11_261
*1003 FILLER_11_273
*1004 FILLER_11_279
*1005 FILLER_11_281
*1006 FILLER_11_293
*1007 FILLER_11_298
*1008 FILLER_11_3
*1009 FILLER_11_310
*1010 FILLER_11_32
*1011 FILLER_11_322
*1012 FILLER_11_334
*1013 FILLER_11_337
*1014 FILLER_11_349
*1015 FILLER_11_361
*1016 FILLER_11_373
*1017 FILLER_11_385
*1018 FILLER_11_391
*1019 FILLER_11_393
*1020 FILLER_11_40
*1021 FILLER_11_405
*1022 FILLER_11_47
*1023 FILLER_11_54
*1024 FILLER_11_57
*1025 FILLER_11_63
*1026 FILLER_11_84
*1027 FILLER_12_117
*1028 FILLER_12_126
*1029 FILLER_12_138
*1030 FILLER_12_141
*1031 FILLER_12_147
*1032 FILLER_12_151
*1033 FILLER_12_158
*1034 FILLER_12_170
*1035 FILLER_12_176
*1036 FILLER_12_180
*1037 FILLER_12_187
*1038 FILLER_12_195
*1039 FILLER_12_197
*1040 FILLER_12_209
*1041 FILLER_12_220
*1042 FILLER_12_233
*1043 FILLER_12_245
*1044 FILLER_12_251
*1045 FILLER_12_253
*1046 FILLER_12_257
*1047 FILLER_12_26
*1048 FILLER_12_261
*1049 FILLER_12_273
*1050 FILLER_12_285
*1051 FILLER_12_29
*1052 FILLER_12_297
*1053 FILLER_12_3
*1054 FILLER_12_305
*1055 FILLER_12_309
*1056 FILLER_12_321
*1057 FILLER_12_333
*1058 FILLER_12_345
*1059 FILLER_12_357
*1060 FILLER_12_363
*1061 FILLER_12_365
*1062 FILLER_12_377
*1063 FILLER_12_389
*1064 FILLER_12_405
*1065 FILLER_12_52
*1066 FILLER_12_60
*1067 FILLER_12_82
*1068 FILLER_12_85
*1069 FILLER_12_89
*1070 FILLER_12_93
*1071 FILLER_13_106
*1072 FILLER_13_113
*1073 FILLER_13_119
*1074 FILLER_13_123
*1075 FILLER_13_130
*1076 FILLER_13_137
*1077 FILLER_13_144
*1078 FILLER_13_153
*1079 FILLER_13_166
*1080 FILLER_13_169
*1081 FILLER_13_180
*1082 FILLER_13_186
*1083 FILLER_13_190
*1084 FILLER_13_202
*1085 FILLER_13_214
*1086 FILLER_13_222
*1087 FILLER_13_225
*1088 FILLER_13_237
*1089 FILLER_13_243
*1090 FILLER_13_255
*1091 FILLER_13_267
*1092 FILLER_13_279
*1093 FILLER_13_28
*1094 FILLER_13_281
*1095 FILLER_13_293
*1096 FILLER_13_3
*1097 FILLER_13_305
*1098 FILLER_13_317
*1099 FILLER_13_329
*1100 FILLER_13_335
*1101 FILLER_13_337
*1102 FILLER_13_349
*1103 FILLER_13_361
*1104 FILLER_13_373
*1105 FILLER_13_385
*1106 FILLER_13_391
*1107 FILLER_13_393
*1108 FILLER_13_405
*1109 FILLER_13_53
*1110 FILLER_13_57
*1111 FILLER_13_81
*1112 FILLER_13_85
*1113 FILLER_14_118
*1114 FILLER_14_130
*1115 FILLER_14_137
*1116 FILLER_14_141
*1117 FILLER_14_151
*1118 FILLER_14_157
*1119 FILLER_14_161
*1120 FILLER_14_168
*1121 FILLER_14_181
*1122 FILLER_14_192
*1123 FILLER_14_197
*1124 FILLER_14_203
*1125 FILLER_14_210
*1126 FILLER_14_222
*1127 FILLER_14_234
*1128 FILLER_14_238
*1129 FILLER_14_247
*1130 FILLER_14_251
*1131 FILLER_14_253
*1132 FILLER_14_26
*1133 FILLER_14_265
*1134 FILLER_14_277
*1135 FILLER_14_289
*1136 FILLER_14_29
*1137 FILLER_14_3
*1138 FILLER_14_301
*1139 FILLER_14_307
*1140 FILLER_14_309
*1141 FILLER_14_321
*1142 FILLER_14_333
*1143 FILLER_14_345
*1144 FILLER_14_353
*1145 FILLER_14_359
*1146 FILLER_14_363
*1147 FILLER_14_365
*1148 FILLER_14_377
*1149 FILLER_14_389
*1150 FILLER_14_39
*1151 FILLER_14_401
*1152 FILLER_14_48
*1153 FILLER_14_72
*1154 FILLER_14_78
*1155 FILLER_14_82
*1156 FILLER_14_85
*1157 FILLER_14_94
*1158 FILLER_15_110
*1159 FILLER_15_113
*1160 FILLER_15_135
*1161 FILLER_15_141
*1162 FILLER_15_145
*1163 FILLER_15_15
*1164 FILLER_15_152
*1165 FILLER_15_159
*1166 FILLER_15_166
*1167 FILLER_15_169
*1168 FILLER_15_179
*1169 FILLER_15_185
*1170 FILLER_15_194
*1171 FILLER_15_198
*1172 FILLER_15_202
*1173 FILLER_15_206
*1174 FILLER_15_210
*1175 FILLER_15_217
*1176 FILLER_15_223
*1177 FILLER_15_225
*1178 FILLER_15_233
*1179 FILLER_15_237
*1180 FILLER_15_241
*1181 FILLER_15_245
*1182 FILLER_15_252
*1183 FILLER_15_264
*1184 FILLER_15_276
*1185 FILLER_15_281
*1186 FILLER_15_286
*1187 FILLER_15_298
*1188 FILLER_15_3
*1189 FILLER_15_310
*1190 FILLER_15_322
*1191 FILLER_15_334
*1192 FILLER_15_337
*1193 FILLER_15_349
*1194 FILLER_15_361
*1195 FILLER_15_370
*1196 FILLER_15_385
*1197 FILLER_15_391
*1198 FILLER_15_393
*1199 FILLER_15_40
*1200 FILLER_15_405
*1201 FILLER_15_47
*1202 FILLER_15_54
*1203 FILLER_15_57
*1204 FILLER_15_8
*1205 FILLER_15_81
*1206 FILLER_15_89
*1207 FILLER_16_118
*1208 FILLER_16_126
*1209 FILLER_16_138
*1210 FILLER_16_141
*1211 FILLER_16_152
*1212 FILLER_16_163
*1213 FILLER_16_175
*1214 FILLER_16_179
*1215 FILLER_16_183
*1216 FILLER_16_187
*1217 FILLER_16_191
*1218 FILLER_16_195
*1219 FILLER_16_197
*1220 FILLER_16_202
*1221 FILLER_16_206
*1222 FILLER_16_215
*1223 FILLER_16_222
*1224 FILLER_16_237
*1225 FILLER_16_244
*1226 FILLER_16_253
*1227 FILLER_16_258
*1228 FILLER_16_26
*1229 FILLER_16_270
*1230 FILLER_16_282
*1231 FILLER_16_29
*1232 FILLER_16_294
*1233 FILLER_16_3
*1234 FILLER_16_306
*1235 FILLER_16_309
*1236 FILLER_16_314
*1237 FILLER_16_326
*1238 FILLER_16_338
*1239 FILLER_16_350
*1240 FILLER_16_362
*1241 FILLER_16_365
*1242 FILLER_16_377
*1243 FILLER_16_389
*1244 FILLER_16_401
*1245 FILLER_16_54
*1246 FILLER_16_82
*1247 FILLER_16_85
*1248 FILLER_16_94
*1249 FILLER_17_110
*1250 FILLER_17_113
*1251 FILLER_17_127
*1252 FILLER_17_139
*1253 FILLER_17_146
*1254 FILLER_17_153
*1255 FILLER_17_165
*1256 FILLER_17_169
*1257 FILLER_17_175
*1258 FILLER_17_182
*1259 FILLER_17_189
*1260 FILLER_17_201
*1261 FILLER_17_213
*1262 FILLER_17_220
*1263 FILLER_17_225
*1264 FILLER_17_230
*1265 FILLER_17_237
*1266 FILLER_17_252
*1267 FILLER_17_259
*1268 FILLER_17_266
*1269 FILLER_17_278
*1270 FILLER_17_281
*1271 FILLER_17_293
*1272 FILLER_17_3
*1273 FILLER_17_305
*1274 FILLER_17_317
*1275 FILLER_17_329
*1276 FILLER_17_335
*1277 FILLER_17_337
*1278 FILLER_17_34
*1279 FILLER_17_349
*1280 FILLER_17_357
*1281 FILLER_17_363
*1282 FILLER_17_375
*1283 FILLER_17_387
*1284 FILLER_17_391
*1285 FILLER_17_393
*1286 FILLER_17_401
*1287 FILLER_17_405
*1288 FILLER_17_46
*1289 FILLER_17_50
*1290 FILLER_17_54
*1291 FILLER_17_57
*1292 FILLER_17_67
*1293 FILLER_17_74
*1294 FILLER_17_9
*1295 FILLER_17_98
*1296 FILLER_18_104
*1297 FILLER_18_108
*1298 FILLER_18_120
*1299 FILLER_18_133
*1300 FILLER_18_139
*1301 FILLER_18_141
*1302 FILLER_18_148
*1303 FILLER_18_160
*1304 FILLER_18_173
*1305 FILLER_18_179
*1306 FILLER_18_183
*1307 FILLER_18_190
*1308 FILLER_18_197
*1309 FILLER_18_204
*1310 FILLER_18_218
*1311 FILLER_18_225
*1312 FILLER_18_232
*1313 FILLER_18_240
*1314 FILLER_18_250
*1315 FILLER_18_253
*1316 FILLER_18_26