*SPEF "ieee 1481-1999"
*DESIGN "sb_1__1_"
*DATE "11:11:11 Fri 11 11, 1111"
*VENDOR "OpenRCX"
*PROGRAM "Parallel Extraction"
*VERSION "1.0"
*DESIGN_FLOW "NAME_SCOPE LOCAL" "PIN_CAP NONE"
*DIVIDER /
*DELIMITER :
*BUS_DELIMITER []
*T_UNIT 1 NS
*C_UNIT 1 PF
*R_UNIT 1 OHM
*L_UNIT 1 HENRY

*NAME_MAP
*1 bottom_left_grid_right_width_0_height_0_subtile_0__pin_O_1_
*2 bottom_left_grid_right_width_0_height_0_subtile_0__pin_O_5_
*3 bottom_right_grid_left_width_0_height_0_subtile_0__pin_O_3_
*4 bottom_right_grid_left_width_0_height_0_subtile_0__pin_O_7_
*5 ccff_head
*6 ccff_tail
*7 chanx_left_in[0]
*8 chanx_left_in[10]
*9 chanx_left_in[11]
*10 chanx_left_in[12]
*11 chanx_left_in[13]
*12 chanx_left_in[14]
*13 chanx_left_in[15]
*14 chanx_left_in[16]
*15 chanx_left_in[17]
*16 chanx_left_in[18]
*17 chanx_left_in[1]
*18 chanx_left_in[2]
*19 chanx_left_in[3]
*20 chanx_left_in[4]
*21 chanx_left_in[5]
*22 chanx_left_in[6]
*23 chanx_left_in[7]
*24 chanx_left_in[8]
*25 chanx_left_in[9]
*26 chanx_left_out[0]
*27 chanx_left_out[10]
*28 chanx_left_out[11]
*29 chanx_left_out[12]
*30 chanx_left_out[13]
*31 chanx_left_out[14]
*32 chanx_left_out[15]
*33 chanx_left_out[16]
*34 chanx_left_out[17]
*35 chanx_left_out[18]
*36 chanx_left_out[1]
*37 chanx_left_out[2]
*38 chanx_left_out[3]
*39 chanx_left_out[4]
*40 chanx_left_out[5]
*41 chanx_left_out[6]
*42 chanx_left_out[7]
*43 chanx_left_out[8]
*44 chanx_left_out[9]
*45 chanx_right_in[0]
*46 chanx_right_in[10]
*47 chanx_right_in[11]
*48 chanx_right_in[12]
*49 chanx_right_in[13]
*50 chanx_right_in[14]
*51 chanx_right_in[15]
*52 chanx_right_in[16]
*53 chanx_right_in[17]
*54 chanx_right_in[18]
*55 chanx_right_in[1]
*56 chanx_right_in[2]
*57 chanx_right_in[3]
*58 chanx_right_in[4]
*59 chanx_right_in[5]
*60 chanx_right_in[6]
*61 chanx_right_in[7]
*62 chanx_right_in[8]
*63 chanx_right_in[9]
*64 chanx_right_out[0]
*65 chanx_right_out[10]
*66 chanx_right_out[11]
*67 chanx_right_out[12]
*68 chanx_right_out[13]
*69 chanx_right_out[14]
*70 chanx_right_out[15]
*71 chanx_right_out[16]
*72 chanx_right_out[17]
*73 chanx_right_out[18]
*74 chanx_right_out[1]
*75 chanx_right_out[2]
*76 chanx_right_out[3]
*77 chanx_right_out[4]
*78 chanx_right_out[5]
*79 chanx_right_out[6]
*80 chanx_right_out[7]
*81 chanx_right_out[8]
*82 chanx_right_out[9]
*83 chany_bottom_in[0]
*84 chany_bottom_in[10]
*85 chany_bottom_in[11]
*86 chany_bottom_in[12]
*87 chany_bottom_in[13]
*88 chany_bottom_in[14]
*89 chany_bottom_in[15]
*90 chany_bottom_in[16]
*91 chany_bottom_in[17]
*92 chany_bottom_in[18]
*93 chany_bottom_in[1]
*94 chany_bottom_in[2]
*95 chany_bottom_in[3]
*96 chany_bottom_in[4]
*97 chany_bottom_in[5]
*98 chany_bottom_in[6]
*99 chany_bottom_in[7]
*100 chany_bottom_in[8]
*101 chany_bottom_in[9]
*102 chany_bottom_out[0]
*103 chany_bottom_out[10]
*104 chany_bottom_out[11]
*105 chany_bottom_out[12]
*106 chany_bottom_out[13]
*107 chany_bottom_out[14]
*108 chany_bottom_out[15]
*109 chany_bottom_out[16]
*110 chany_bottom_out[17]
*111 chany_bottom_out[18]
*112 chany_bottom_out[1]
*113 chany_bottom_out[2]
*114 chany_bottom_out[3]
*115 chany_bottom_out[4]
*116 chany_bottom_out[5]
*117 chany_bottom_out[6]
*118 chany_bottom_out[7]
*119 chany_bottom_out[8]
*120 chany_bottom_out[9]
*121 chany_top_in[0]
*122 chany_top_in[10]
*123 chany_top_in[11]
*124 chany_top_in[12]
*125 chany_top_in[13]
*126 chany_top_in[14]
*127 chany_top_in[15]
*128 chany_top_in[16]
*129 chany_top_in[17]
*130 chany_top_in[18]
*131 chany_top_in[1]
*132 chany_top_in[2]
*133 chany_top_in[3]
*134 chany_top_in[4]
*135 chany_top_in[5]
*136 chany_top_in[6]
*137 chany_top_in[7]
*138 chany_top_in[8]
*139 chany_top_in[9]
*140 chany_top_out[0]
*141 chany_top_out[10]
*142 chany_top_out[11]
*143 chany_top_out[12]
*144 chany_top_out[13]
*145 chany_top_out[14]
*146 chany_top_out[15]
*147 chany_top_out[16]
*148 chany_top_out[17]
*149 chany_top_out[18]
*150 chany_top_out[1]
*151 chany_top_out[2]
*152 chany_top_out[3]
*153 chany_top_out[4]
*154 chany_top_out[5]
*155 chany_top_out[6]
*156 chany_top_out[7]
*157 chany_top_out[8]
*158 chany_top_out[9]
*159 left_bottom_grid_top_width_0_height_0_subtile_0__pin_O_0_
*160 left_bottom_grid_top_width_0_height_0_subtile_0__pin_O_4_
*161 left_top_grid_bottom_width_0_height_0_subtile_0__pin_O_2_
*162 left_top_grid_bottom_width_0_height_0_subtile_0__pin_O_6_
*163 pReset
*164 prog_clk
*165 right_bottom_grid_top_width_0_height_0_subtile_0__pin_O_0_
*166 right_bottom_grid_top_width_0_height_0_subtile_0__pin_O_4_
*167 right_top_grid_bottom_width_0_height_0_subtile_0__pin_O_2_
*168 right_top_grid_bottom_width_0_height_0_subtile_0__pin_O_6_
*169 top_left_grid_right_width_0_height_0_subtile_0__pin_O_1_
*170 top_left_grid_right_width_0_height_0_subtile_0__pin_O_5_
*171 top_right_grid_left_width_0_height_0_subtile_0__pin_O_3_
*172 top_right_grid_left_width_0_height_0_subtile_0__pin_O_7_
*175 _0000_
*176 _0001_
*177 _0002_
*178 _0003_
*179 _0004_
*180 _0005_
*181 _0006_
*182 _0007_
*183 _0008_
*184 _0009_
*185 _0010_
*186 _0011_
*187 _0012_
*188 _0013_
*189 _0014_
*190 _0015_
*191 _0016_
*192 _0017_
*193 _0018_
*194 _0019_
*195 _0020_
*196 _0021_
*197 _0022_
*198 _0023_
*199 _0024_
*200 _0025_
*201 _0026_
*202 _0027_
*203 _0028_
*204 _0029_
*205 _0030_
*206 _0031_
*207 _0032_
*208 _0033_
*209 _0034_
*210 _0035_
*211 _0036_
*212 _0037_
*213 _0038_
*214 _0039_
*215 _0040_
*216 _0041_
*217 _0042_
*218 _0043_
*219 _0044_
*220 _0045_
*221 _0046_
*222 _0047_
*223 _0048_
*224 _0049_
*225 _0050_
*226 _0051_
*227 _0052_
*228 _0053_
*229 _0054_
*230 _0055_
*231 _0056_
*232 _0057_
*233 _0058_
*234 _0059_
*235 _0060_
*236 _0061_
*237 _0062_
*238 _0063_
*239 _0064_
*240 _0065_
*241 _0066_
*242 _0067_
*243 _0068_
*244 _0069_
*245 _0070_
*246 _0071_
*247 _0072_
*248 _0073_
*249 _0074_
*250 _0075_
*251 _0076_
*252 _0077_
*253 _0078_
*254 _0079_
*255 _0080_
*256 _0081_
*257 _0082_
*258 _0083_
*259 _0084_
*260 _0085_
*261 _0086_
*262 _0087_
*263 _0088_
*264 _0089_
*265 _0090_
*266 _0091_
*267 _0092_
*268 _0093_
*269 _0094_
*270 _0095_
*271 _0096_
*272 _0097_
*273 _0098_
*274 _0099_
*275 _0100_
*276 _0101_
*277 _0102_
*278 _0103_
*279 _0104_
*280 _0105_
*281 _0106_
*282 _0107_
*283 _0108_
*284 _0109_
*285 _0110_
*286 _0111_
*287 _0112_
*288 _0113_
*289 _0114_
*290 _0115_
*291 _0116_
*292 _0117_
*293 _0118_
*294 _0119_
*295 _0120_
*296 _0121_
*297 _0122_
*298 _0123_
*299 _0124_
*300 _0125_
*301 _0126_
*302 _0127_
*303 _0128_
*304 _0129_
*305 _0130_
*306 _0131_
*307 _0132_
*308 _0133_
*309 _0134_
*310 _0135_
*311 _0136_
*312 _0137_
*313 _0138_
*314 _0139_
*315 _0140_
*316 _0141_
*317 _0142_
*318 _0143_
*319 _0144_
*320 _0145_
*321 _0146_
*322 _0147_
*323 _0148_
*324 _0149_
*325 _0150_
*326 _0151_
*327 _0152_
*328 _0153_
*329 _0154_
*330 _0155_
*331 _0156_
*332 _0157_
*333 _0158_
*334 _0159_
*335 _0160_
*336 _0161_
*337 _0162_
*338 _0163_
*339 _0164_
*340 _0165_
*341 _0166_
*342 _0167_
*343 _0168_
*344 _0169_
*345 _0170_
*346 _0171_
*347 _0172_
*348 _0173_
*349 _0174_
*350 _0175_
*351 _0176_
*352 _0177_
*353 _0178_
*354 _0179_
*355 _0180_
*356 _0181_
*357 _0182_
*358 _0183_
*359 _0184_
*360 _0185_
*361 _0186_
*362 _0187_
*363 _0188_
*364 _0189_
*365 _0190_
*366 _0191_
*367 _0192_
*368 _0193_
*369 _0194_
*370 _0195_
*371 _0196_
*372 _0197_
*373 _0198_
*374 _0199_
*375 _0200_
*376 _0201_
*377 _0202_
*378 _0203_
*379 _0204_
*380 _0205_
*381 _0206_
*382 _0207_
*383 _0208_
*384 _0209_
*385 _0210_
*386 _0211_
*387 _0212_
*388 _0213_
*389 _0214_
*390 _0215_
*391 _0216_
*392 _0217_
*393 _0218_
*394 _0219_
*395 _0220_
*396 _0221_
*397 _0222_
*398 _0223_
*399 _0224_
*400 _0225_
*401 _0226_
*402 _0227_
*403 _0228_
*404 _0229_
*405 _0230_
*406 _0231_
*407 _0232_
*408 _0233_
*409 _0234_
*410 _0235_
*411 _0236_
*412 _0237_
*413 _0238_
*414 _0239_
*415 _0240_
*416 _0241_
*417 _0242_
*418 _0243_
*419 _0244_
*420 _0245_
*421 _0246_
*422 _0247_
*423 _0248_
*424 _0249_
*425 _0250_
*426 _0251_
*427 _0252_
*428 _0253_
*429 _0254_
*430 _0255_
*431 _0256_
*432 _0257_
*433 _0258_
*434 _0259_
*435 _0260_
*436 _0261_
*437 _0262_
*438 _0263_
*439 _0264_
*440 _0265_
*441 _0266_
*442 _0267_
*443 _0268_
*444 _0269_
*445 _0270_
*446 _0271_
*447 _0272_
*448 _0273_
*449 _0274_
*450 _0275_
*451 _0276_
*452 _0277_
*453 _0278_
*454 _0279_
*455 _0280_
*456 _0281_
*457 _0282_
*458 _0283_
*459 _0284_
*460 _0285_
*461 _0286_
*462 _0287_
*463 _0288_
*464 _0289_
*465 _0290_
*466 _0291_
*467 _0292_
*468 _0293_
*469 _0294_
*470 _0295_
*471 _0296_
*472 _0297_
*473 _0298_
*474 _0299_
*475 _0300_
*476 _0301_
*477 _0302_
*478 _0303_
*479 _0304_
*480 _0305_
*481 _0306_
*482 _0307_
*483 _0308_
*484 _0309_
*485 _0310_
*486 _0311_
*487 _0312_
*488 _0313_
*489 _0314_
*490 _0315_
*491 _0316_
*492 _0317_
*493 _0318_
*494 _0319_
*495 _0320_
*496 _0321_
*497 _0322_
*498 _0323_
*499 _0324_
*500 _0325_
*501 _0326_
*502 _0327_
*503 _0328_
*504 _0329_
*505 _0330_
*506 _0331_
*507 _0332_
*508 _0333_
*509 _0334_
*510 _0335_
*511 _0336_
*512 _0337_
*513 _0338_
*514 _0339_
*515 _0340_
*516 _0341_
*517 _0342_
*518 _0343_
*519 _0344_
*520 _0345_
*521 _0346_
*522 _0347_
*523 _0348_
*524 _0349_
*525 _0350_
*526 _0351_
*527 _0352_
*528 _0353_
*529 _0354_
*530 _0355_
*531 _0356_
*532 _0357_
*533 _0358_
*534 _0359_
*535 _0360_
*536 _0361_
*537 _0362_
*538 _0363_
*539 _0364_
*540 _0365_
*541 _0366_
*542 _0367_
*543 _0368_
*544 _0369_
*545 _0370_
*546 _0371_
*547 _0372_
*548 _0373_
*549 _0374_
*550 _0375_
*551 _0376_
*552 _0377_
*553 _0378_
*554 _0379_
*555 _0380_
*556 _0381_
*557 _0382_
*558 _0383_
*559 _0384_
*560 _0385_
*561 _0386_
*562 _0387_
*563 _0388_
*564 _0389_
*565 _0390_
*566 _0391_
*567 _0392_
*568 _0393_
*569 _0394_
*570 _0395_
*571 _0396_
*572 _0397_
*573 _0398_
*574 _0399_
*575 _0400_
*576 _0401_
*577 _0402_
*578 _0403_
*579 _0404_
*580 _0405_
*581 _0406_
*582 _0407_
*583 _0408_
*584 _0409_
*585 _0410_
*586 _0411_
*587 _0412_
*588 _0413_
*589 _0414_
*590 _0415_
*591 _0416_
*592 _0417_
*593 _0418_
*594 _0419_
*595 _0420_
*596 _0421_
*597 _0422_
*598 _0423_
*599 _0424_
*600 _0425_
*601 _0426_
*602 _0427_
*603 _0428_
*604 _0429_
*605 _0430_
*606 _0431_
*607 _0432_
*608 _0433_
*609 _0434_
*610 _0435_
*611 _0436_
*612 _0437_
*613 _0438_
*614 _0439_
*615 _0440_
*616 _0441_
*617 _0442_
*618 _0443_
*619 _0444_
*620 _0445_
*621 _0446_
*622 _0447_
*623 _0448_
*624 _0449_
*625 _0450_
*626 _0451_
*627 _0452_
*628 _0453_
*629 _0454_
*630 _0455_
*631 _0456_
*632 _0457_
*633 _0458_
*634 _0459_
*635 _0460_
*636 _0461_
*637 _0462_
*638 _0463_
*639 _0464_
*640 _0465_
*641 _0466_
*642 _0467_
*643 _0468_
*644 _0469_
*645 _0470_
*646 _0471_
*647 _0472_
*648 clknet_0_prog_clk
*649 clknet_4_0_0_prog_clk
*650 clknet_4_10_0_prog_clk
*651 clknet_4_11_0_prog_clk
*652 clknet_4_12_0_prog_clk
*653 clknet_4_13_0_prog_clk
*654 clknet_4_14_0_prog_clk
*655 clknet_4_15_0_prog_clk
*656 clknet_4_1_0_prog_clk
*657 clknet_4_2_0_prog_clk
*658 clknet_4_3_0_prog_clk
*659 clknet_4_4_0_prog_clk
*660 clknet_4_5_0_prog_clk
*661 clknet_4_6_0_prog_clk
*662 clknet_4_7_0_prog_clk
*663 clknet_4_8_0_prog_clk
*664 clknet_4_9_0_prog_clk
*665 mem_bottom_track_1\.DFFR_0_\.D
*666 mem_bottom_track_1\.DFFR_0_\.Q
*667 mem_bottom_track_1\.DFFR_1_\.Q
*668 mem_bottom_track_1\.DFFR_2_\.Q
*669 mem_bottom_track_1\.DFFR_3_\.Q
*670 mem_bottom_track_1\.DFFR_4_\.Q
*671 mem_bottom_track_1\.DFFR_5_\.Q
*672 mem_bottom_track_1\.DFFR_6_\.Q
*673 mem_bottom_track_1\.DFFR_7_\.Q
*674 mem_bottom_track_17\.DFFR_0_\.D
*675 mem_bottom_track_17\.DFFR_0_\.Q
*676 mem_bottom_track_17\.DFFR_1_\.Q
*677 mem_bottom_track_17\.DFFR_2_\.Q
*678 mem_bottom_track_17\.DFFR_3_\.Q
*679 mem_bottom_track_17\.DFFR_4_\.Q
*680 mem_bottom_track_17\.DFFR_5_\.Q
*681 mem_bottom_track_17\.DFFR_6_\.Q
*682 mem_bottom_track_17\.DFFR_7_\.Q
*683 mem_bottom_track_25\.DFFR_0_\.Q
*684 mem_bottom_track_25\.DFFR_1_\.Q
*685 mem_bottom_track_25\.DFFR_2_\.Q
*686 mem_bottom_track_25\.DFFR_3_\.Q
*687 mem_bottom_track_25\.DFFR_4_\.Q
*688 mem_bottom_track_25\.DFFR_5_\.Q
*689 mem_bottom_track_25\.DFFR_6_\.Q
*690 mem_bottom_track_25\.DFFR_7_\.Q
*691 mem_bottom_track_33\.DFFR_0_\.Q
*692 mem_bottom_track_33\.DFFR_1_\.Q
*693 mem_bottom_track_33\.DFFR_2_\.Q
*694 mem_bottom_track_33\.DFFR_3_\.Q
*695 mem_bottom_track_33\.DFFR_4_\.Q
*696 mem_bottom_track_33\.DFFR_5_\.Q
*697 mem_bottom_track_9\.DFFR_0_\.Q
*698 mem_bottom_track_9\.DFFR_1_\.Q
*699 mem_bottom_track_9\.DFFR_2_\.Q
*700 mem_bottom_track_9\.DFFR_3_\.Q
*701 mem_bottom_track_9\.DFFR_4_\.Q
*702 mem_bottom_track_9\.DFFR_5_\.Q
*703 mem_bottom_track_9\.DFFR_6_\.Q
*704 mem_left_track_1\.DFFR_0_\.Q
*705 mem_left_track_1\.DFFR_1_\.Q
*706 mem_left_track_1\.DFFR_2_\.Q
*707 mem_left_track_1\.DFFR_3_\.Q
*708 mem_left_track_1\.DFFR_4_\.Q
*709 mem_left_track_1\.DFFR_5_\.Q
*710 mem_left_track_1\.DFFR_6_\.Q
*711 mem_left_track_1\.DFFR_7_\.Q
*712 mem_left_track_17\.DFFR_0_\.D
*713 mem_left_track_17\.DFFR_0_\.Q
*714 mem_left_track_17\.DFFR_1_\.Q
*715 mem_left_track_17\.DFFR_2_\.Q
*716 mem_left_track_17\.DFFR_3_\.Q
*717 mem_left_track_17\.DFFR_4_\.Q
*718 mem_left_track_17\.DFFR_5_\.Q
*719 mem_left_track_17\.DFFR_6_\.Q
*720 mem_left_track_17\.DFFR_7_\.Q
*721 mem_left_track_25\.DFFR_0_\.Q
*722 mem_left_track_25\.DFFR_1_\.Q
*723 mem_left_track_25\.DFFR_2_\.Q
*724 mem_left_track_25\.DFFR_3_\.Q
*725 mem_left_track_25\.DFFR_4_\.Q
*726 mem_left_track_25\.DFFR_5_\.Q
*727 mem_left_track_25\.DFFR_6_\.Q
*728 mem_left_track_25\.DFFR_7_\.Q
*729 mem_left_track_33\.DFFR_0_\.Q
*730 mem_left_track_33\.DFFR_1_\.Q
*731 mem_left_track_33\.DFFR_2_\.Q
*732 mem_left_track_33\.DFFR_3_\.Q
*733 mem_left_track_33\.DFFR_4_\.Q
*734 mem_left_track_9\.DFFR_0_\.Q
*735 mem_left_track_9\.DFFR_1_\.Q
*736 mem_left_track_9\.DFFR_2_\.Q
*737 mem_left_track_9\.DFFR_3_\.Q
*738 mem_left_track_9\.DFFR_4_\.Q
*739 mem_left_track_9\.DFFR_5_\.Q
*740 mem_left_track_9\.DFFR_6_\.Q
*741 mem_right_track_0\.DFFR_0_\.D
*742 mem_right_track_0\.DFFR_0_\.Q
*743 mem_right_track_0\.DFFR_1_\.Q
*744 mem_right_track_0\.DFFR_2_\.Q
*745 mem_right_track_0\.DFFR_3_\.Q
*746 mem_right_track_0\.DFFR_4_\.Q
*747 mem_right_track_0\.DFFR_5_\.Q
*748 mem_right_track_0\.DFFR_6_\.Q
*749 mem_right_track_0\.DFFR_7_\.Q
*750 mem_right_track_16\.DFFR_0_\.D
*751 mem_right_track_16\.DFFR_0_\.Q
*752 mem_right_track_16\.DFFR_1_\.Q
*753 mem_right_track_16\.DFFR_2_\.Q
*754 mem_right_track_16\.DFFR_3_\.Q
*755 mem_right_track_16\.DFFR_4_\.Q
*756 mem_right_track_16\.DFFR_5_\.Q
*757 mem_right_track_16\.DFFR_6_\.Q
*758 mem_right_track_16\.DFFR_7_\.Q
*759 mem_right_track_24\.DFFR_0_\.Q
*760 mem_right_track_24\.DFFR_1_\.Q
*761 mem_right_track_24\.DFFR_2_\.Q
*762 mem_right_track_24\.DFFR_3_\.Q
*763 mem_right_track_24\.DFFR_4_\.Q
*764 mem_right_track_24\.DFFR_5_\.Q
*765 mem_right_track_24\.DFFR_6_\.Q
*766 mem_right_track_24\.DFFR_7_\.Q
*767 mem_right_track_32\.DFFR_0_\.Q
*768 mem_right_track_32\.DFFR_1_\.Q
*769 mem_right_track_32\.DFFR_2_\.Q
*770 mem_right_track_32\.DFFR_3_\.Q
*771 mem_right_track_32\.DFFR_4_\.Q
*772 mem_right_track_8\.DFFR_0_\.Q
*773 mem_right_track_8\.DFFR_1_\.Q
*774 mem_right_track_8\.DFFR_2_\.Q
*775 mem_right_track_8\.DFFR_3_\.Q
*776 mem_right_track_8\.DFFR_4_\.Q
*777 mem_right_track_8\.DFFR_5_\.Q
*778 mem_right_track_8\.DFFR_6_\.Q
*779 mem_top_track_0\.DFFR_0_\.Q
*780 mem_top_track_0\.DFFR_1_\.Q
*781 mem_top_track_0\.DFFR_2_\.Q
*782 mem_top_track_0\.DFFR_3_\.Q
*783 mem_top_track_0\.DFFR_4_\.Q
*784 mem_top_track_0\.DFFR_5_\.Q
*785 mem_top_track_0\.DFFR_6_\.Q
*786 mem_top_track_0\.DFFR_7_\.Q
*787 mem_top_track_16\.DFFR_0_\.D
*788 mem_top_track_16\.DFFR_0_\.Q
*789 mem_top_track_16\.DFFR_1_\.Q
*790 mem_top_track_16\.DFFR_2_\.Q
*791 mem_top_track_16\.DFFR_3_\.Q
*792 mem_top_track_16\.DFFR_4_\.Q
*793 mem_top_track_16\.DFFR_5_\.Q
*794 mem_top_track_16\.DFFR_6_\.Q
*795 mem_top_track_16\.DFFR_7_\.Q
*796 mem_top_track_24\.DFFR_0_\.Q
*797 mem_top_track_24\.DFFR_1_\.Q
*798 mem_top_track_24\.DFFR_2_\.Q
*799 mem_top_track_24\.DFFR_3_\.Q
*800 mem_top_track_24\.DFFR_4_\.Q
*801 mem_top_track_24\.DFFR_5_\.Q
*802 mem_top_track_24\.DFFR_6_\.Q
*803 mem_top_track_24\.DFFR_7_\.Q
*804 mem_top_track_32\.DFFR_0_\.Q
*805 mem_top_track_32\.DFFR_1_\.Q
*806 mem_top_track_32\.DFFR_2_\.Q
*807 mem_top_track_32\.DFFR_3_\.Q
*808 mem_top_track_32\.DFFR_4_\.Q
*809 mem_top_track_8\.DFFR_0_\.Q
*810 mem_top_track_8\.DFFR_1_\.Q
*811 mem_top_track_8\.DFFR_2_\.Q
*812 mem_top_track_8\.DFFR_3_\.Q
*813 mem_top_track_8\.DFFR_4_\.Q
*814 mem_top_track_8\.DFFR_5_\.Q
*815 mem_top_track_8\.DFFR_6_\.Q
*816 mux_bottom_track_1\.INVTX1_0_\.out
*817 mux_bottom_track_1\.INVTX1_10_\.out
*818 mux_bottom_track_1\.INVTX1_11_\.out
*819 mux_bottom_track_1\.INVTX1_1_\.out
*820 mux_bottom_track_1\.INVTX1_2_\.out
*821 mux_bottom_track_1\.INVTX1_3_\.out
*822 mux_bottom_track_1\.INVTX1_4_\.out
*823 mux_bottom_track_1\.INVTX1_5_\.out
*824 mux_bottom_track_1\.INVTX1_6_\.out
*825 mux_bottom_track_1\.INVTX1_7_\.out
*826 mux_bottom_track_1\.INVTX1_8_\.out
*827 mux_bottom_track_1\.INVTX1_9_\.out
*828 mux_bottom_track_1\.mux_2level_tapbuf_basis_input4_mem4_0_out
*829 mux_bottom_track_1\.mux_2level_tapbuf_basis_input4_mem4_1_out
*830 mux_bottom_track_1\.mux_2level_tapbuf_basis_input4_mem4_2_out
*831 mux_bottom_track_1\.mux_2level_tapbuf_basis_input4_mem4_3_out
*832 mux_bottom_track_1\.out
*833 mux_bottom_track_17\.INVTX1_0_\.out
*834 mux_bottom_track_17\.INVTX1_10_\.out
*835 mux_bottom_track_17\.INVTX1_11_\.out
*836 mux_bottom_track_17\.INVTX1_1_\.out
*837 mux_bottom_track_17\.INVTX1_2_\.out
*838 mux_bottom_track_17\.INVTX1_3_\.out
*839 mux_bottom_track_17\.INVTX1_4_\.out
*840 mux_bottom_track_17\.INVTX1_5_\.out
*841 mux_bottom_track_17\.INVTX1_6_\.out
*842 mux_bottom_track_17\.INVTX1_7_\.out
*843 mux_bottom_track_17\.INVTX1_8_\.out
*844 mux_bottom_track_17\.INVTX1_9_\.out
*845 mux_bottom_track_17\.mux_2level_tapbuf_basis_input4_mem4_0_out
*846 mux_bottom_track_17\.mux_2level_tapbuf_basis_input4_mem4_1_out
*847 mux_bottom_track_17\.mux_2level_tapbuf_basis_input4_mem4_2_out
*848 mux_bottom_track_17\.mux_2level_tapbuf_basis_input4_mem4_3_out
*849 mux_bottom_track_17\.out
*850 mux_bottom_track_25\.INVTX1_0_\.out
*851 mux_bottom_track_25\.INVTX1_10_\.out
*852 mux_bottom_track_25\.INVTX1_11_\.out
*853 mux_bottom_track_25\.INVTX1_1_\.out
*854 mux_bottom_track_25\.INVTX1_2_\.out
*855 mux_bottom_track_25\.INVTX1_3_\.out
*856 mux_bottom_track_25\.INVTX1_4_\.out
*857 mux_bottom_track_25\.INVTX1_5_\.out
*858 mux_bottom_track_25\.INVTX1_6_\.out
*859 mux_bottom_track_25\.INVTX1_7_\.out
*860 mux_bottom_track_25\.INVTX1_8_\.out
*861 mux_bottom_track_25\.INVTX1_9_\.out
*862 mux_bottom_track_25\.mux_2level_tapbuf_basis_input4_mem4_0_out
*863 mux_bottom_track_25\.mux_2level_tapbuf_basis_input4_mem4_1_out
*864 mux_bottom_track_25\.mux_2level_tapbuf_basis_input4_mem4_2_out
*865 mux_bottom_track_25\.mux_2level_tapbuf_basis_input4_mem4_3_out
*866 mux_bottom_track_25\.out
*867 mux_bottom_track_33\.INVTX1_0_\.out
*868 mux_bottom_track_33\.INVTX1_1_\.out
*869 mux_bottom_track_33\.INVTX1_2_\.out
*870 mux_bottom_track_33\.INVTX1_3_\.out
*871 mux_bottom_track_33\.INVTX1_4_\.out
*872 mux_bottom_track_33\.INVTX1_5_\.out
*873 mux_bottom_track_33\.INVTX1_6_\.out
*874 mux_bottom_track_33\.INVTX1_7_\.out
*875 mux_bottom_track_33\.mux_2level_tapbuf_basis_input3_mem3_0_out
*876 mux_bottom_track_33\.mux_2level_tapbuf_basis_input3_mem3_1_out
*877 mux_bottom_track_33\.mux_2level_tapbuf_basis_input3_mem3_2_out
*878 mux_bottom_track_33\.mux_2level_tapbuf_basis_input3_mem3_3_out
*879 mux_bottom_track_33\.out
*880 mux_bottom_track_9\.INVTX1_0_\.out
*881 mux_bottom_track_9\.INVTX1_10_\.out
*882 mux_bottom_track_9\.INVTX1_11_\.out
*883 mux_bottom_track_9\.INVTX1_1_\.out
*884 mux_bottom_track_9\.INVTX1_2_\.out
*885 mux_bottom_track_9\.INVTX1_3_\.out
*886 mux_bottom_track_9\.INVTX1_4_\.out
*887 mux_bottom_track_9\.INVTX1_5_\.out
*888 mux_bottom_track_9\.INVTX1_6_\.out
*889 mux_bottom_track_9\.INVTX1_7_\.out
*890 mux_bottom_track_9\.INVTX1_8_\.out
*891 mux_bottom_track_9\.INVTX1_9_\.out
*892 mux_bottom_track_9\.mux_2level_tapbuf_basis_input4_mem4_0_out
*893 mux_bottom_track_9\.mux_2level_tapbuf_basis_input4_mem4_1_out
*894 mux_bottom_track_9\.mux_2level_tapbuf_basis_input4_mem4_2_out
*895 mux_bottom_track_9\.mux_2level_tapbuf_basis_input4_mem4_3_out
*896 mux_bottom_track_9\.out
*897 mux_left_track_1\.INVTX1_10_\.out
*898 mux_left_track_1\.INVTX1_11_\.out
*899 mux_left_track_1\.INVTX1_1_\.out
*900 mux_left_track_1\.INVTX1_7_\.out
*901 mux_left_track_1\.INVTX1_8_\.out
*902 mux_left_track_1\.INVTX1_9_\.out
*903 mux_left_track_1\.mux_2level_tapbuf_basis_input4_mem4_0_out
*904 mux_left_track_1\.mux_2level_tapbuf_basis_input4_mem4_1_out
*905 mux_left_track_1\.mux_2level_tapbuf_basis_input4_mem4_2_out
*906 mux_left_track_1\.mux_2level_tapbuf_basis_input4_mem4_3_out
*907 mux_left_track_1\.out
*908 mux_left_track_17\.INVTX1_10_\.out
*909 mux_left_track_17\.INVTX1_11_\.out
*910 mux_left_track_17\.INVTX1_2_\.out
*911 mux_left_track_17\.INVTX1_7_\.out
*912 mux_left_track_17\.INVTX1_8_\.out
*913 mux_left_track_17\.INVTX1_9_\.out
*914 mux_left_track_17\.mux_2level_tapbuf_basis_input4_mem4_0_out
*915 mux_left_track_17\.mux_2level_tapbuf_basis_input4_mem4_1_out
*916 mux_left_track_17\.mux_2level_tapbuf_basis_input4_mem4_2_out
*917 mux_left_track_17\.mux_2level_tapbuf_basis_input4_mem4_3_out
*918 mux_left_track_17\.out
*919 mux_left_track_25\.INVTX1_10_\.out
*920 mux_left_track_25\.INVTX1_11_\.out
*921 mux_left_track_25\.INVTX1_2_\.out
*922 mux_left_track_25\.INVTX1_7_\.out
*923 mux_left_track_25\.INVTX1_8_\.out
*924 mux_left_track_25\.INVTX1_9_\.out
*925 mux_left_track_25\.mux_2level_tapbuf_basis_input4_mem4_0_out
*926 mux_left_track_25\.mux_2level_tapbuf_basis_input4_mem4_1_out
*927 mux_left_track_25\.mux_2level_tapbuf_basis_input4_mem4_2_out
*928 mux_left_track_25\.mux_2level_tapbuf_basis_input4_mem4_3_out
*929 mux_left_track_25\.out
*930 mux_left_track_33\.INVTX1_1_\.out
*931 mux_left_track_33\.INVTX1_5_\.out
*932 mux_left_track_33\.INVTX1_6_\.out
*933 mux_left_track_33\.INVTX1_7_\.out
*934 mux_left_track_33\.mux_2level_tapbuf_basis_input3_mem3_0_out
*935 mux_left_track_33\.mux_2level_tapbuf_basis_input3_mem3_1_out
*936 mux_left_track_33\.mux_2level_tapbuf_basis_input3_mem3_2_out
*937 mux_left_track_33\.mux_2level_tapbuf_basis_input3_mem3_3_out
*938 mux_left_track_33\.out
*939 mux_left_track_9\.INVTX1_10_\.out
*940 mux_left_track_9\.INVTX1_11_\.out
*941 mux_left_track_9\.INVTX1_3_\.out
*942 mux_left_track_9\.INVTX1_7_\.out
*943 mux_left_track_9\.INVTX1_8_\.out
*944 mux_left_track_9\.INVTX1_9_\.out
*945 mux_left_track_9\.mux_2level_tapbuf_basis_input4_mem4_0_out
*946 mux_left_track_9\.mux_2level_tapbuf_basis_input4_mem4_1_out
*947 mux_left_track_9\.mux_2level_tapbuf_basis_input4_mem4_2_out
*948 mux_left_track_9\.mux_2level_tapbuf_basis_input4_mem4_3_out
*949 mux_left_track_9\.out
*950 mux_right_track_0\.INVTX1_4_\.out
*951 mux_right_track_0\.mux_2level_tapbuf_basis_input4_mem4_0_out
*952 mux_right_track_0\.mux_2level_tapbuf_basis_input4_mem4_1_out
*953 mux_right_track_0\.mux_2level_tapbuf_basis_input4_mem4_2_out
*954 mux_right_track_0\.mux_2level_tapbuf_basis_input4_mem4_3_out
*955 mux_right_track_0\.out
*956 mux_right_track_16\.INVTX1_4_\.out
*957 mux_right_track_16\.mux_2level_tapbuf_basis_input4_mem4_0_out
*958 mux_right_track_16\.mux_2level_tapbuf_basis_input4_mem4_1_out
*959 mux_right_track_16\.mux_2level_tapbuf_basis_input4_mem4_2_out
*960 mux_right_track_16\.mux_2level_tapbuf_basis_input4_mem4_3_out
*961 mux_right_track_16\.out
*962 mux_right_track_24\.INVTX1_4_\.out
*963 mux_right_track_24\.mux_2level_tapbuf_basis_input4_mem4_0_out
*964 mux_right_track_24\.mux_2level_tapbuf_basis_input4_mem4_1_out
*965 mux_right_track_24\.mux_2level_tapbuf_basis_input4_mem4_2_out
*966 mux_right_track_24\.mux_2level_tapbuf_basis_input4_mem4_3_out
*967 mux_right_track_24\.out
*968 mux_right_track_32\.mux_2level_tapbuf_basis_input3_mem3_0_out
*969 mux_right_track_32\.mux_2level_tapbuf_basis_input3_mem3_1_out
*970 mux_right_track_32\.mux_2level_tapbuf_basis_input3_mem3_2_out
*971 mux_right_track_32\.mux_2level_tapbuf_basis_input3_mem3_3_out
*972 mux_right_track_32\.out
*973 mux_right_track_8\.INVTX1_4_\.out
*974 mux_right_track_8\.mux_2level_tapbuf_basis_input4_mem4_0_out
*975 mux_right_track_8\.mux_2level_tapbuf_basis_input4_mem4_1_out
*976 mux_right_track_8\.mux_2level_tapbuf_basis_input4_mem4_2_out
*977 mux_right_track_8\.mux_2level_tapbuf_basis_input4_mem4_3_out
*978 mux_right_track_8\.out
*979 mux_top_track_0\.INVTX1_0_\.out
*980 mux_top_track_0\.mux_2level_tapbuf_basis_input4_mem4_0_out
*981 mux_top_track_0\.mux_2level_tapbuf_basis_input4_mem4_1_out
*982 mux_top_track_0\.mux_2level_tapbuf_basis_input4_mem4_2_out
*983 mux_top_track_0\.mux_2level_tapbuf_basis_input4_mem4_3_out
*984 mux_top_track_0\.out
*985 mux_top_track_16\.INVTX1_0_\.out
*986 mux_top_track_16\.mux_2level_tapbuf_basis_input4_mem4_0_out
*987 mux_top_track_16\.mux_2level_tapbuf_basis_input4_mem4_1_out
*988 mux_top_track_16\.mux_2level_tapbuf_basis_input4_mem4_2_out
*989 mux_top_track_16\.mux_2level_tapbuf_basis_input4_mem4_3_out
*990 mux_top_track_16\.out
*991 mux_top_track_24\.INVTX1_0_\.out
*992 mux_top_track_24\.mux_2level_tapbuf_basis_input4_mem4_0_out
*993 mux_top_track_24\.mux_2level_tapbuf_basis_input4_mem4_1_out
*994 mux_top_track_24\.mux_2level_tapbuf_basis_input4_mem4_2_out
*995 mux_top_track_24\.mux_2level_tapbuf_basis_input4_mem4_3_out
*996 mux_top_track_24\.out
*997 mux_top_track_32\.mux_2level_tapbuf_basis_input3_mem3_0_out
*998 mux_top_track_32\.mux_2level_tapbuf_basis_input3_mem3_1_out
*999 mux_top_track_32\.mux_2level_tapbuf_basis_input3_mem3_2_out
*1000 mux_top_track_32\.mux_2level_tapbuf_basis_input3_mem3_3_out
*1001 mux_top_track_32\.out
*1002 mux_top_track_8\.INVTX1_0_\.out
*1003 mux_top_track_8\.mux_2level_tapbuf_basis_input4_mem4_0_out
*1004 mux_top_track_8\.mux_2level_tapbuf_basis_input4_mem4_1_out
*1005 mux_top_track_8\.mux_2level_tapbuf_basis_input4_mem4_2_out
*1006 mux_top_track_8\.mux_2level_tapbuf_basis_input4_mem4_3_out
*1007 mux_top_track_8\.out
*1008 net1
*1009 net10
*1010 net100
*1011 net101
*1012 net102
*1013 net103
*1014 net104
*1015 net105
*1016 net106
*1017 net107
*1018 net108
*1019 net109
*1020 net11
*1021 net110
*1022 net111
*1023 net112
*1024 net113
*1025 net114
*1026 net115
*1027 net116
*1028 net117
*1029 net118
*1030 net119
*1031 net12
*1032 net120
*1033 net121
*1034 net122
*1035 net123
*1036 net124
*1037 net125
*1038 net126
*1039 net127
*1040 net128
*1041 net129
*1042 net13
*1043 net130
*1044 net131
*1045 net132
*1046 net133
*1047 net134
*1048 net135
*1049 net136
*1050 net137
*1051 net138
*1052 net139
*1053 net14
*1054 net140
*1055 net141
*1056 net142
*1057 net143
*1058 net144
*1059 net145
*1060 net146
*1061 net147
*1062 net148
*1063 net149
*1064 net15
*1065 net150
*1066 net151
*1067 net152
*1068 net153
*1069 net154
*1070 net155
*1071 net156
*1072 net157
*1073 net158
*1074 net159
*1075 net16
*1076 net160
*1077 net161
*1078 net162
*1079 net163
*1080 net164
*1081 net165
*1082 net166
*1083 net167
*1084 net168
*1085 net169
*1086 net17
*1087 net170
*1088 net171
*1089 net172
*1090 net173
*1091 net174
*1092 net175
*1093 net176
*1094 net177
*1095 net178
*1096 net179
*1097 net18
*1098 net180
*1099 net181
*1100 net182
*1101 net183
*1102 net184
*1103 net185
*1104 net186
*1105 net187
*1106 net188
*1107 net189
*1108 net19
*1109 net190
*1110 net191
*1111 net2
*1112 net20
*1113 net21
*1114 net22
*1115 net23
*1116 net24
*1117 net25
*1118 net26
*1119 net27
*1120 net28
*1121 net29
*1122 net3
*1123 net30
*1124 net31
*1125 net32
*1126 net33
*1127 net34
*1128 net35
*1129 net36
*1130 net37
*1131 net38
*1132 net39
*1133 net4
*1134 net40
*1135 net41
*1136 net42
*1137 net43
*1138 net44
*1139 net45
*1140 net46
*1141 net47
*1142 net48
*1143 net49
*1144 net5
*1145 net50
*1146 net51
*1147 net52
*1148 net53
*1149 net54
*1150 net55
*1151 net56
*1152 net57
*1153 net58
*1154 net59
*1155 net6
*1156 net60
*1157 net61
*1158 net62
*1159 net63
*1160 net64
*1161 net65
*1162 net66
*1163 net67
*1164 net68
*1165 net69
*1166 net7
*1167 net70
*1168 net71
*1169 net72
*1170 net73
*1171 net74
*1172 net75
*1173 net76
*1174 net77
*1175 net78
*1176 net79
*1177 net8
*1178 net80
*1179 net81
*1180 net82
*1181 net83
*1182 net84
*1183 net85
*1184 net86
*1185 net87
*1186 net88
*1187 net89
*1188 net9
*1189 net90
*1190 net91
*1191 net92
*1192 net93
*1193 net94
*1194 net95
*1195 net96
*1196 net97
*1197 net98
*1198 net99
*1199 ANTENNA_1
*1200 ANTENNA_10
*1201 ANTENNA_11
*1202 ANTENNA_12
*1203 ANTENNA_2
*1204 ANTENNA_3
*1205 ANTENNA_4
*1206 ANTENNA_5
*1207 ANTENNA_6
*1208 ANTENNA_7
*1209 ANTENNA_8
*1210 ANTENNA_9
*1211 FILLER_0_10
*1212 FILLER_0_110
*1213 FILLER_0_113
*1214 FILLER_0_138
*1215 FILLER_0_141
*1216 FILLER_0_162
*1217 FILLER_0_166
*1218 FILLER_0_169
*1219 FILLER_0_18
*1220 FILLER_0_194
*1221 FILLER_0_197
*1222 FILLER_0_222
*1223 FILLER_0_225
*1224 FILLER_0_247
*1225 FILLER_0_251
*1226 FILLER_0_253
*1227 FILLER_0_26
*1228 FILLER_0_275
*1229 FILLER_0_279
*1230 FILLER_0_281
*1231 FILLER_0_29
*1232 FILLER_0_3
*1233 FILLER_0_303
*1234 FILLER_0_307
*1235 FILLER_0_309
*1236 FILLER_0_331
*1237 FILLER_0_335
*1238 FILLER_0_337
*1239 FILLER_0_359
*1240 FILLER_0_363
*1241 FILLER_0_365
*1242 FILLER_0_37
*1243 FILLER_0_387
*1244 FILLER_0_391
*1245 FILLER_0_393
*1246 FILLER_0_405
*1247 FILLER_0_54
*1248 FILLER_0_57
*1249 FILLER_0_61
*1250 FILLER_0_82
*1251 FILLER_0_85
*1252 FILLER_0_89
*1253 FILLER_10_111
*1254 FILLER_10_138
*1255 FILLER_10_141
*1256 FILLER_10_146
*1257 FILLER_10_15
*1258 FILLER_10_170
*1259 FILLER_10_19
*1260 FILLER_10_194
*1261 FILLER_10_197
*1262 FILLER_10_222
*1263 FILLER_10_226
*1264 FILLER_10_247
*1265 FILLER_10_251
*1266 FILLER_10_253
*1267 FILLER_10_258
*1268 FILLER_10_26
*1269 FILLER_10_269
*1270 FILLER_10_29
*1271 FILLER_10_296
*1272 FILLER_10_3
*1273 FILLER_10_303
*1274 FILLER_10_307
*1275 FILLER_10_309
*1276 FILLER_10_322
*1277 FILLER_10_34
*1278 FILLER_10_341
*1279 FILLER_10_348
*1280 FILLER_10_355
*1281 FILLER_10_362
*1282 FILLER_10_365
*1283 FILLER_10_370
*1284 FILLER_10_377
*1285 FILLER_10_384
*1286 FILLER_10_391
*1287 FILLER_10_399
*1288 FILLER_10_405
*1289 FILLER_10_41
*1290 FILLER_10_48
*1291 FILLER_10_65
*1292 FILLER_10_82
*1293 FILLER_10_85
*1294 FILLER_10_9
*1295 FILLER_11_10