*SPEF "ieee 1481-1999"
*DESIGN "sb_4__1_"
*DATE "11:11:11 Fri 11 11, 1111"
*VENDOR "OpenRCX"
*PROGRAM "Parallel Extraction"
*VERSION "1.0"
*DESIGN_FLOW "NAME_SCOPE LOCAL" "PIN_CAP NONE"
*DIVIDER /
*DELIMITER :
*BUS_DELIMITER []
*T_UNIT 1 NS
*C_UNIT 1 PF
*R_UNIT 1 OHM
*L_UNIT 1 HENRY

*NAME_MAP
*1 bottom_left_grid_right_width_0_height_0_subtile_0__pin_O_1_
*2 bottom_left_grid_right_width_0_height_0_subtile_0__pin_O_5_
*3 bottom_right_grid_left_width_0_height_0_subtile_0__pin_inpad_0_
*4 bottom_right_grid_left_width_0_height_0_subtile_1__pin_inpad_0_
*5 bottom_right_grid_left_width_0_height_0_subtile_2__pin_inpad_0_
*6 bottom_right_grid_left_width_0_height_0_subtile_3__pin_inpad_0_
*7 bottom_right_grid_left_width_0_height_0_subtile_4__pin_inpad_0_
*8 bottom_right_grid_left_width_0_height_0_subtile_5__pin_inpad_0_
*9 bottom_right_grid_left_width_0_height_0_subtile_6__pin_inpad_0_
*10 bottom_right_grid_left_width_0_height_0_subtile_7__pin_inpad_0_
*11 ccff_head
*12 ccff_tail
*13 chanx_left_in[0]
*14 chanx_left_in[10]
*15 chanx_left_in[11]
*16 chanx_left_in[12]
*17 chanx_left_in[13]
*18 chanx_left_in[14]
*19 chanx_left_in[15]
*20 chanx_left_in[16]
*21 chanx_left_in[17]
*22 chanx_left_in[18]
*23 chanx_left_in[1]
*24 chanx_left_in[2]
*25 chanx_left_in[3]
*26 chanx_left_in[4]
*27 chanx_left_in[5]
*28 chanx_left_in[6]
*29 chanx_left_in[7]
*30 chanx_left_in[8]
*31 chanx_left_in[9]
*32 chanx_left_out[0]
*33 chanx_left_out[10]
*34 chanx_left_out[11]
*35 chanx_left_out[12]
*36 chanx_left_out[13]
*37 net141
*38 chanx_left_out[15]
*39 chanx_left_out[16]
*40 chanx_left_out[17]
*41 chanx_left_out[18]
*42 chanx_left_out[1]
*43 chanx_left_out[2]
*44 chanx_left_out[3]
*45 chanx_left_out[4]
*46 chanx_left_out[5]
*47 chanx_left_out[6]
*48 chanx_left_out[7]
*49 chanx_left_out[8]
*50 chanx_left_out[9]
*51 chany_bottom_in[0]
*52 chany_bottom_in[10]
*53 chany_bottom_in[11]
*54 chany_bottom_in[12]
*55 chany_bottom_in[13]
*56 chany_bottom_in[14]
*57 chany_bottom_in[15]
*58 chany_bottom_in[16]
*59 chany_bottom_in[17]
*60 chany_bottom_in[18]
*61 chany_bottom_in[1]
*62 chany_bottom_in[2]
*63 chany_bottom_in[3]
*64 chany_bottom_in[4]
*65 chany_bottom_in[5]
*66 chany_bottom_in[6]
*67 chany_bottom_in[7]
*68 chany_bottom_in[8]
*69 chany_bottom_in[9]
*70 chany_bottom_out[0]
*71 chany_bottom_out[10]
*72 chany_bottom_out[11]
*73 chany_bottom_out[12]
*74 chany_bottom_out[13]
*75 chany_bottom_out[14]
*76 chany_bottom_out[15]
*77 chany_bottom_out[16]
*78 chany_bottom_out[17]
*79 chany_bottom_out[18]
*80 chany_bottom_out[1]
*81 chany_bottom_out[2]
*82 chany_bottom_out[3]
*83 chany_bottom_out[4]
*84 chany_bottom_out[5]
*85 chany_bottom_out[6]
*86 chany_bottom_out[7]
*87 chany_bottom_out[8]
*88 chany_bottom_out[9]
*89 chany_top_in[0]
*90 chany_top_in[10]
*91 chany_top_in[11]
*92 chany_top_in[12]
*93 chany_top_in[13]
*94 chany_top_in[14]
*95 chany_top_in[15]
*96 chany_top_in[16]
*97 chany_top_in[17]
*98 chany_top_in[18]
*99 chany_top_in[1]
*100 chany_top_in[2]
*101 chany_top_in[3]
*102 chany_top_in[4]
*103 chany_top_in[5]
*104 chany_top_in[6]
*105 chany_top_in[7]
*106 chany_top_in[8]
*107 chany_top_in[9]
*108 chany_top_out[0]
*109 chany_top_out[10]
*110 chany_top_out[11]
*111 chany_top_out[12]
*112 chany_top_out[13]
*113 chany_top_out[14]
*114 chany_top_out[15]
*115 chany_top_out[16]
*116 chany_top_out[17]
*117 chany_top_out[18]
*118 chany_top_out[1]
*119 chany_top_out[2]
*120 chany_top_out[3]
*121 chany_top_out[4]
*122 chany_top_out[5]
*123 chany_top_out[6]
*124 chany_top_out[7]
*125 chany_top_out[8]
*126 chany_top_out[9]
*127 left_bottom_grid_top_width_0_height_0_subtile_0__pin_O_0_
*128 left_bottom_grid_top_width_0_height_0_subtile_0__pin_O_4_
*129 left_top_grid_bottom_width_0_height_0_subtile_0__pin_O_2_
*130 left_top_grid_bottom_width_0_height_0_subtile_0__pin_O_6_
*131 pReset
*132 prog_clk
*133 top_left_grid_right_width_0_height_0_subtile_0__pin_O_1_
*134 top_left_grid_right_width_0_height_0_subtile_0__pin_O_5_
*135 top_right_grid_left_width_0_height_0_subtile_0__pin_inpad_0_
*136 top_right_grid_left_width_0_height_0_subtile_1__pin_inpad_0_
*137 top_right_grid_left_width_0_height_0_subtile_2__pin_inpad_0_
*138 top_right_grid_left_width_0_height_0_subtile_3__pin_inpad_0_
*139 top_right_grid_left_width_0_height_0_subtile_4__pin_inpad_0_
*140 top_right_grid_left_width_0_height_0_subtile_5__pin_inpad_0_
*141 top_right_grid_left_width_0_height_0_subtile_6__pin_inpad_0_
*142 top_right_grid_left_width_0_height_0_subtile_7__pin_inpad_0_
*145 _0000_
*146 _0001_
*147 _0002_
*148 _0003_
*149 _0004_
*150 _0005_
*151 _0006_
*152 _0007_
*153 _0008_
*154 _0009_
*155 _0010_
*156 _0011_
*157 _0012_
*158 _0013_
*159 _0014_
*160 _0015_
*161 _0016_
*162 _0017_
*163 _0018_
*164 _0019_
*165 _0020_
*166 _0021_
*167 _0022_
*168 _0023_
*169 _0024_
*170 _0025_
*171 _0026_
*172 _0027_
*173 _0028_
*174 _0029_
*175 _0030_
*176 _0031_
*177 _0032_
*178 _0033_
*179 _0034_
*180 _0035_
*181 _0036_
*182 _0037_
*183 _0038_
*184 _0039_
*185 _0040_
*186 _0041_
*187 _0042_
*188 _0043_
*189 _0044_
*190 _0045_
*191 _0046_
*192 _0047_
*193 _0048_
*194 _0049_
*195 _0050_
*196 _0051_
*197 _0052_
*198 _0053_
*199 _0054_
*200 _0055_
*201 _0056_
*202 _0057_
*203 _0058_
*204 _0059_
*205 _0060_
*206 _0061_
*207 _0062_
*208 _0063_
*209 _0064_
*210 _0065_
*211 _0066_
*212 _0067_
*213 _0068_
*214 _0069_
*215 _0070_
*216 _0071_
*217 _0072_
*218 _0073_
*219 _0074_
*220 _0075_
*221 _0076_
*222 _0077_
*223 _0078_
*224 _0079_
*225 _0080_
*226 _0081_
*227 _0082_
*228 _0083_
*229 _0084_
*230 _0085_
*231 _0086_
*232 _0087_
*233 _0088_
*234 _0089_
*235 _0090_
*236 _0091_
*237 _0092_
*238 _0093_
*239 _0094_
*240 _0095_
*241 _0096_
*242 _0097_
*243 _0098_
*244 _0099_
*245 _0100_
*246 _0101_
*247 _0102_
*248 _0103_
*249 _0104_
*250 _0105_
*251 _0106_
*252 _0107_
*253 _0108_
*254 _0109_
*255 _0110_
*256 _0111_
*257 _0112_
*258 _0113_
*259 _0114_
*260 _0115_
*261 _0116_
*262 _0117_
*263 _0118_
*264 _0119_
*265 _0120_
*266 _0121_
*267 _0122_
*268 _0123_
*269 _0124_
*270 _0125_
*271 _0126_
*272 _0127_
*273 _0128_
*274 _0129_
*275 _0130_
*276 _0131_
*277 _0132_
*278 _0133_
*279 _0134_
*280 _0135_
*281 _0136_
*282 _0137_
*283 _0138_
*284 _0139_
*285 _0140_
*286 _0141_
*287 _0142_
*288 _0143_
*289 _0144_
*290 _0145_
*291 _0146_
*292 _0147_
*293 _0148_
*294 _0149_
*295 _0150_
*296 _0151_
*297 _0152_
*298 _0153_
*299 _0154_
*300 _0155_
*301 _0156_
*302 _0157_
*303 _0158_
*304 _0159_
*305 _0160_
*306 _0161_
*307 _0162_
*308 _0163_
*309 _0164_
*310 _0165_
*311 _0166_
*312 _0167_
*313 _0168_
*314 _0169_
*315 _0170_
*316 _0171_
*317 _0172_
*318 _0173_
*319 _0174_
*320 _0175_
*321 _0176_
*322 _0177_
*323 _0178_
*324 _0179_
*325 _0180_
*326 _0181_
*327 _0182_
*328 _0183_
*329 _0184_
*330 _0185_
*331 _0186_
*332 _0187_
*333 _0188_
*334 _0189_
*335 _0190_
*336 _0191_
*337 _0192_
*338 _0193_
*339 _0194_
*340 _0195_
*341 _0196_
*342 _0197_
*343 _0198_
*344 _0199_
*345 _0200_
*346 _0201_
*347 _0202_
*348 _0203_
*349 _0204_
*350 _0205_
*351 _0206_
*352 _0207_
*353 _0208_
*354 _0209_
*355 _0210_
*356 _0211_
*357 _0212_
*358 _0213_
*359 _0214_
*360 _0215_
*361 _0216_
*362 _0217_
*363 _0218_
*364 _0219_
*365 _0220_
*366 _0221_
*367 _0222_
*368 _0223_
*369 _0224_
*370 _0225_
*371 _0226_
*372 _0227_
*373 _0228_
*374 _0229_
*375 _0230_
*376 _0231_
*377 _0232_
*378 _0233_
*379 _0234_
*380 _0235_
*381 _0236_
*382 _0237_
*383 _0238_
*384 _0239_
*385 _0240_
*386 _0241_
*387 _0242_
*388 _0243_
*389 _0244_
*390 _0245_
*391 _0246_
*392 _0247_
*393 _0248_
*394 _0249_
*395 _0250_
*396 _0251_
*397 _0252_
*398 _0253_
*399 _0254_
*400 _0255_
*401 _0256_
*402 _0257_
*403 _0258_
*404 _0259_
*405 _0260_
*406 _0261_
*407 _0262_
*408 _0263_
*409 _0264_
*410 _0265_
*411 _0266_
*412 _0267_
*413 _0268_
*414 _0269_
*415 _0270_
*416 _0271_
*417 _0272_
*418 _0273_
*419 _0274_
*420 _0275_
*421 _0276_
*422 _0277_
*423 _0278_
*424 _0279_
*425 _0280_
*426 _0281_
*427 _0282_
*428 _0283_
*429 _0284_
*430 _0285_
*431 _0286_
*432 _0287_
*433 _0288_
*434 _0289_
*435 _0290_
*436 _0291_
*437 _0292_
*438 _0293_
*439 _0294_
*440 _0295_
*441 _0296_
*442 _0297_
*443 _0298_
*444 _0299_
*445 _0300_
*446 _0301_
*447 _0302_
*448 _0303_
*449 _0304_
*450 _0305_
*451 _0306_
*452 _0307_
*453 _0308_
*454 _0309_
*455 _0310_
*456 _0311_
*457 _0312_
*458 _0313_
*459 _0314_
*460 _0315_
*461 _0316_
*462 _0317_
*463 _0318_
*464 _0319_
*465 _0320_
*466 _0321_
*467 _0322_
*468 _0323_
*469 _0324_
*470 _0325_
*471 _0326_
*472 _0327_
*473 _0328_
*474 _0329_
*475 _0330_
*476 _0331_
*477 _0332_
*478 _0333_
*479 _0334_
*480 _0335_
*481 _0336_
*482 _0337_
*483 _0338_
*484 _0339_
*485 _0340_
*486 _0341_
*487 _0342_
*488 _0343_
*489 _0344_
*490 _0345_
*491 _0346_
*492 _0347_
*493 _0348_
*494 _0349_
*495 _0350_
*496 _0351_
*497 _0352_
*498 _0353_
*499 _0354_
*500 _0355_
*501 _0356_
*502 _0357_
*503 _0358_
*504 _0359_
*505 _0360_
*506 _0361_
*507 _0362_
*508 _0363_
*509 _0364_
*510 clknet_0_prog_clk
*511 clknet_4_0_0_prog_clk
*512 clknet_4_10_0_prog_clk
*513 clknet_4_11_0_prog_clk
*514 clknet_4_12_0_prog_clk
*515 clknet_4_13_0_prog_clk
*516 clknet_4_14_0_prog_clk
*517 clknet_4_15_0_prog_clk
*518 clknet_4_1_0_prog_clk
*519 clknet_4_2_0_prog_clk
*520 clknet_4_3_0_prog_clk
*521 clknet_4_4_0_prog_clk
*522 clknet_4_5_0_prog_clk
*523 clknet_4_6_0_prog_clk
*524 clknet_4_7_0_prog_clk
*525 clknet_4_8_0_prog_clk
*526 clknet_4_9_0_prog_clk
*527 mem_bottom_track_1\.DFFR_0_\.D
*528 mem_bottom_track_1\.DFFR_0_\.Q
*529 mem_bottom_track_1\.DFFR_1_\.Q
*530 mem_bottom_track_1\.DFFR_2_\.Q
*531 mem_bottom_track_1\.DFFR_3_\.Q
*532 mem_bottom_track_1\.DFFR_4_\.Q
*533 mem_bottom_track_1\.DFFR_5_\.Q
*534 mem_bottom_track_1\.DFFR_6_\.Q
*535 mem_bottom_track_1\.DFFR_7_\.Q
*536 mem_bottom_track_17\.DFFR_0_\.D
*537 mem_bottom_track_17\.DFFR_0_\.Q
*538 mem_bottom_track_17\.DFFR_1_\.Q
*539 mem_bottom_track_17\.DFFR_2_\.Q
*540 mem_bottom_track_17\.DFFR_3_\.Q
*541 mem_bottom_track_17\.DFFR_4_\.Q
*542 mem_bottom_track_17\.DFFR_5_\.Q
*543 mem_bottom_track_17\.DFFR_6_\.Q
*544 mem_bottom_track_17\.DFFR_7_\.Q
*545 mem_bottom_track_25\.DFFR_0_\.Q
*546 mem_bottom_track_25\.DFFR_1_\.Q
*547 mem_bottom_track_25\.DFFR_2_\.Q
*548 mem_bottom_track_25\.DFFR_3_\.Q
*549 mem_bottom_track_25\.DFFR_4_\.Q
*550 mem_bottom_track_25\.DFFR_5_\.Q
*551 mem_bottom_track_33\.DFFR_0_\.Q
*552 mem_bottom_track_33\.DFFR_1_\.Q
*553 mem_bottom_track_33\.DFFR_2_\.Q
*554 mem_bottom_track_33\.DFFR_3_\.Q
*555 mem_bottom_track_33\.DFFR_4_\.Q
*556 mem_bottom_track_33\.DFFR_5_\.Q
*557 mem_bottom_track_9\.DFFR_0_\.Q
*558 mem_bottom_track_9\.DFFR_1_\.Q
*559 mem_bottom_track_9\.DFFR_2_\.Q
*560 mem_bottom_track_9\.DFFR_3_\.Q
*561 mem_bottom_track_9\.DFFR_4_\.Q
*562 mem_bottom_track_9\.DFFR_5_\.Q
*563 mem_bottom_track_9\.DFFR_6_\.Q
*564 mem_left_track_1\.DFFR_0_\.Q
*565 mem_left_track_1\.DFFR_1_\.Q
*566 mem_left_track_1\.DFFR_2_\.Q
*567 mem_left_track_1\.DFFR_3_\.Q
*568 mem_left_track_1\.DFFR_4_\.Q
*569 mem_left_track_1\.DFFR_5_\.Q
*570 mem_left_track_11\.DFFR_0_\.D
*571 mem_left_track_11\.DFFR_0_\.Q
*572 mem_left_track_11\.DFFR_1_\.Q
*573 mem_left_track_13\.DFFR_0_\.Q
*574 mem_left_track_13\.DFFR_1_\.Q
*575 mem_left_track_15\.DFFR_0_\.Q
*576 mem_left_track_15\.DFFR_1_\.Q
*577 mem_left_track_17\.DFFR_0_\.Q
*578 mem_left_track_17\.DFFR_1_\.Q
*579 mem_left_track_19\.DFFR_0_\.Q
*580 mem_left_track_19\.DFFR_1_\.Q
*581 mem_left_track_21\.DFFR_0_\.Q
*582 mem_left_track_21\.DFFR_1_\.Q
*583 mem_left_track_23\.DFFR_0_\.Q
*584 mem_left_track_23\.DFFR_1_\.Q
*585 mem_left_track_25\.DFFR_0_\.Q
*586 mem_left_track_25\.DFFR_1_\.Q
*587 mem_left_track_27\.DFFR_0_\.Q
*588 mem_left_track_27\.DFFR_1_\.Q
*589 mem_left_track_3\.DFFR_0_\.Q
*590 mem_left_track_3\.DFFR_1_\.Q
*591 mem_left_track_3\.DFFR_2_\.Q
*592 mem_left_track_3\.DFFR_3_\.Q
*593 mem_left_track_3\.DFFR_4_\.Q
*594 mem_left_track_3\.DFFR_5_\.Q
*595 mem_left_track_37\.DFFR_0_\.Q
*596 mem_left_track_5\.DFFR_0_\.Q
*597 mem_left_track_5\.DFFR_1_\.Q
*598 mem_left_track_5\.DFFR_2_\.Q
*599 mem_left_track_5\.DFFR_3_\.Q
*600 mem_left_track_5\.DFFR_4_\.Q
*601 mem_left_track_5\.DFFR_5_\.Q
*602 mem_left_track_7\.DFFR_0_\.Q
*603 mem_left_track_7\.DFFR_1_\.Q
*604 mem_left_track_7\.DFFR_2_\.Q
*605 mem_left_track_7\.DFFR_3_\.Q
*606 mem_left_track_7\.DFFR_4_\.Q
*607 mem_left_track_7\.DFFR_5_\.Q
*608 mem_left_track_9\.DFFR_0_\.Q
*609 mem_top_track_0\.DFFR_0_\.Q
*610 mem_top_track_0\.DFFR_1_\.Q
*611 mem_top_track_0\.DFFR_2_\.Q
*612 mem_top_track_0\.DFFR_3_\.Q
*613 mem_top_track_0\.DFFR_4_\.Q
*614 mem_top_track_0\.DFFR_5_\.Q
*615 mem_top_track_0\.DFFR_6_\.Q
*616 mem_top_track_0\.DFFR_7_\.Q
*617 mem_top_track_16\.DFFR_0_\.D
*618 mem_top_track_16\.DFFR_0_\.Q
*619 mem_top_track_16\.DFFR_1_\.Q
*620 mem_top_track_16\.DFFR_2_\.Q
*621 mem_top_track_16\.DFFR_3_\.Q
*622 mem_top_track_16\.DFFR_4_\.Q
*623 mem_top_track_16\.DFFR_5_\.Q
*624 mem_top_track_16\.DFFR_6_\.Q
*625 mem_top_track_16\.DFFR_7_\.Q
*626 mem_top_track_24\.DFFR_0_\.Q
*627 mem_top_track_24\.DFFR_1_\.Q
*628 mem_top_track_24\.DFFR_2_\.Q
*629 mem_top_track_24\.DFFR_3_\.Q
*630 mem_top_track_24\.DFFR_4_\.Q
*631 mem_top_track_24\.DFFR_5_\.Q
*632 mem_top_track_24\.DFFR_6_\.Q
*633 mem_top_track_24\.DFFR_7_\.Q
*634 mem_top_track_32\.DFFR_0_\.Q
*635 mem_top_track_32\.DFFR_1_\.Q
*636 mem_top_track_32\.DFFR_2_\.Q
*637 mem_top_track_32\.DFFR_3_\.Q
*638 mem_top_track_32\.DFFR_4_\.Q
*639 mem_top_track_8\.DFFR_0_\.Q
*640 mem_top_track_8\.DFFR_1_\.Q
*641 mem_top_track_8\.DFFR_2_\.Q
*642 mem_top_track_8\.DFFR_3_\.Q
*643 mem_top_track_8\.DFFR_4_\.Q
*644 mux_bottom_track_1\.INVTX1_0_\.out
*645 mux_bottom_track_1\.INVTX1_1_\.out
*646 mux_bottom_track_1\.INVTX1_2_\.out
*647 mux_bottom_track_1\.INVTX1_3_\.out
*648 mux_bottom_track_1\.INVTX1_4_\.out
*649 mux_bottom_track_1\.INVTX1_5_\.out
*650 mux_bottom_track_1\.INVTX1_6_\.out
*651 mux_bottom_track_1\.INVTX1_7_\.out
*652 mux_bottom_track_1\.INVTX1_8_\.out
*653 mux_bottom_track_1\.mux_2level_tapbuf_basis_input4_mem4_0_out
*654 mux_bottom_track_1\.mux_2level_tapbuf_basis_input4_mem4_1_out
*655 mux_bottom_track_1\.mux_2level_tapbuf_basis_input4_mem4_2_out
*656 mux_bottom_track_1\.out
*657 mux_bottom_track_17\.INVTX1_0_\.out
*658 mux_bottom_track_17\.INVTX1_1_\.out
*659 mux_bottom_track_17\.INVTX1_2_\.out
*660 mux_bottom_track_17\.INVTX1_3_\.out
*661 mux_bottom_track_17\.INVTX1_4_\.out
*662 mux_bottom_track_17\.INVTX1_5_\.out
*663 mux_bottom_track_17\.INVTX1_6_\.out
*664 mux_bottom_track_17\.INVTX1_7_\.out
*665 mux_bottom_track_17\.INVTX1_8_\.out
*666 mux_bottom_track_17\.mux_2level_tapbuf_basis_input4_mem4_0_out
*667 mux_bottom_track_17\.mux_2level_tapbuf_basis_input4_mem4_1_out
*668 mux_bottom_track_17\.mux_2level_tapbuf_basis_input4_mem4_2_out
*669 mux_bottom_track_17\.out
*670 mux_bottom_track_25\.INVTX1_0_\.out
*671 mux_bottom_track_25\.INVTX1_1_\.out
*672 mux_bottom_track_25\.INVTX1_2_\.out
*673 mux_bottom_track_25\.INVTX1_3_\.out
*674 mux_bottom_track_25\.INVTX1_4_\.out
*675 mux_bottom_track_25\.INVTX1_5_\.out
*676 mux_bottom_track_25\.INVTX1_6_\.out
*677 mux_bottom_track_25\.INVTX1_7_\.out
*678 mux_bottom_track_25\.mux_2level_tapbuf_basis_input3_mem3_0_out
*679 mux_bottom_track_25\.mux_2level_tapbuf_basis_input3_mem3_1_out
*680 mux_bottom_track_25\.mux_2level_tapbuf_basis_input3_mem3_2_out
*681 mux_bottom_track_25\.mux_2level_tapbuf_basis_input3_mem3_3_out
*682 mux_bottom_track_25\.out
*683 mux_bottom_track_33\.INVTX1_0_\.out
*684 mux_bottom_track_33\.INVTX1_1_\.out
*685 mux_bottom_track_33\.INVTX1_2_\.out
*686 mux_bottom_track_33\.INVTX1_3_\.out
*687 mux_bottom_track_33\.INVTX1_4_\.out
*688 mux_bottom_track_33\.INVTX1_5_\.out
*689 mux_bottom_track_33\.INVTX1_6_\.out
*690 mux_bottom_track_33\.INVTX1_7_\.out
*691 mux_bottom_track_33\.mux_2level_tapbuf_basis_input3_mem3_0_out
*692 mux_bottom_track_33\.mux_2level_tapbuf_basis_input3_mem3_1_out
*693 mux_bottom_track_33\.mux_2level_tapbuf_basis_input3_mem3_2_out
*694 mux_bottom_track_33\.mux_2level_tapbuf_basis_input3_mem3_3_out
*695 mux_bottom_track_33\.out
*696 mux_bottom_track_9\.INVTX1_0_\.out
*697 mux_bottom_track_9\.INVTX1_1_\.out
*698 mux_bottom_track_9\.INVTX1_2_\.out
*699 mux_bottom_track_9\.INVTX1_3_\.out
*700 mux_bottom_track_9\.INVTX1_4_\.out
*701 mux_bottom_track_9\.INVTX1_5_\.out
*702 mux_bottom_track_9\.INVTX1_6_\.out
*703 mux_bottom_track_9\.INVTX1_7_\.out
*704 mux_bottom_track_9\.INVTX1_8_\.out
*705 mux_bottom_track_9\.mux_2level_tapbuf_basis_input4_mem4_0_out
*706 mux_bottom_track_9\.mux_2level_tapbuf_basis_input4_mem4_1_out
*707 mux_bottom_track_9\.mux_2level_tapbuf_basis_input4_mem4_2_out
*708 mux_bottom_track_9\.out
*709 mux_left_track_1\.INVTX1_1_\.out
*710 mux_left_track_1\.INVTX1_2_\.out
*711 mux_left_track_1\.INVTX1_3_\.out
*712 mux_left_track_1\.INVTX1_4_\.out
*713 mux_left_track_1\.mux_2level_tapbuf_basis_input2_mem2_0_out
*714 mux_left_track_1\.mux_2level_tapbuf_basis_input3_mem3_0_out
*715 mux_left_track_1\.mux_2level_tapbuf_basis_input3_mem3_1_out
*716 mux_left_track_1\.out
*717 mux_left_track_11\.INVTX1_1_\.out
*718 mux_left_track_11\.INVTX1_2_\.out
*719 mux_left_track_11\.mux_2level_tapbuf_basis_input2_mem1_0_out
*720 mux_left_track_11\.mux_2level_tapbuf_basis_input2_mem1_1_out
*721 mux_left_track_11\.mux_2level_tapbuf_basis_input2_mem1_2_out
*722 mux_left_track_11\.out
*723 mux_left_track_13\.INVTX1_1_\.out
*724 mux_left_track_13\.mux_2level_tapbuf_basis_input2_mem1_0_out
*725 mux_left_track_13\.mux_2level_tapbuf_basis_input2_mem1_1_out
*726 mux_left_track_13\.out
*727 mux_left_track_15\.INVTX1_1_\.out
*728 mux_left_track_15\.mux_2level_tapbuf_basis_input2_mem1_0_out
*729 mux_left_track_15\.mux_2level_tapbuf_basis_input2_mem1_1_out
*730 mux_left_track_15\.out
*731 mux_left_track_17\.INVTX1_1_\.out
*732 mux_left_track_17\.mux_2level_tapbuf_basis_input2_mem1_0_out
*733 mux_left_track_17\.mux_2level_tapbuf_basis_input2_mem1_1_out
*734 mux_left_track_17\.out
*735 mux_left_track_19\.INVTX1_1_\.out
*736 mux_left_track_19\.mux_2level_tapbuf_basis_input2_mem1_0_out
*737 mux_left_track_19\.mux_2level_tapbuf_basis_input2_mem1_1_out
*738 mux_left_track_19\.mux_2level_tapbuf_basis_input2_mem1_2_out
*739 mux_left_track_19\.out
*740 mux_left_track_21\.INVTX1_1_\.out
*741 mux_left_track_21\.mux_2level_tapbuf_basis_input2_mem1_0_out
*742 mux_left_track_21\.mux_2level_tapbuf_basis_input2_mem1_1_out
*743 mux_left_track_21\.mux_2level_tapbuf_basis_input2_mem1_2_out
*744 mux_left_track_21\.out
*745 mux_left_track_23\.INVTX1_1_\.out
*746 mux_left_track_23\.INVTX1_2_\.out
*747 mux_left_track_23\.mux_2level_tapbuf_basis_input2_mem1_0_out
*748 mux_left_track_23\.mux_2level_tapbuf_basis_input2_mem1_1_out
*749 mux_left_track_23\.mux_2level_tapbuf_basis_input2_mem1_2_out
*750 mux_left_track_23\.out
*751 mux_left_track_25\.INVTX1_1_\.out
*752 mux_left_track_25\.INVTX1_2_\.out
*753 mux_left_track_25\.mux_2level_tapbuf_basis_input2_mem1_0_out
*754 mux_left_track_25\.mux_2level_tapbuf_basis_input2_mem1_1_out
*755 mux_left_track_25\.mux_2level_tapbuf_basis_input2_mem1_2_out
*756 mux_left_track_25\.out
*757 mux_left_track_27\.INVTX1_1_\.out
*758 mux_left_track_27\.mux_2level_tapbuf_basis_input2_mem1_0_out
*759 mux_left_track_27\.mux_2level_tapbuf_basis_input2_mem1_1_out
*760 mux_left_track_27\.out
*761 mux_left_track_3\.INVTX1_1_\.out
*762 mux_left_track_3\.INVTX1_2_\.out
*763 mux_left_track_3\.mux_2level_tapbuf_basis_input2_mem2_0_out
*764 mux_left_track_3\.mux_2level_tapbuf_basis_input3_mem3_0_out
*765 mux_left_track_3\.mux_2level_tapbuf_basis_input3_mem3_1_out
*766 mux_left_track_3\.out
*767 mux_left_track_37\.INVTX1_0_\.out
*768 mux_left_track_37\.mux_2level_tapbuf_basis_input2_mem1_0_out
*769 mux_left_track_37\.mux_2level_tapbuf_basis_input2_mem1_1_out
*770 mux_left_track_37\.out
*771 mux_left_track_5\.INVTX1_1_\.out
*772 mux_left_track_5\.INVTX1_2_\.out
*773 mux_left_track_5\.mux_2level_tapbuf_basis_input2_mem2_0_out
*774 mux_left_track_5\.mux_2level_tapbuf_basis_input3_mem3_0_out
*775 mux_left_track_5\.mux_2level_tapbuf_basis_input3_mem3_1_out
*776 mux_left_track_5\.out
*777 mux_left_track_7\.INVTX1_1_\.out
*778 mux_left_track_7\.INVTX1_2_\.out
*779 mux_left_track_7\.mux_2level_tapbuf_basis_input3_mem3_0_out
*780 mux_left_track_7\.mux_2level_tapbuf_basis_input3_mem3_1_out
*781 mux_left_track_7\.out
*782 mux_left_track_9\.INVTX1_1_\.out
*783 mux_left_track_9\.INVTX1_2_\.out
*784 mux_left_track_9\.mux_2level_tapbuf_basis_input2_mem1_0_out
*785 mux_left_track_9\.mux_2level_tapbuf_basis_input2_mem1_1_out
*786 mux_left_track_9\.mux_2level_tapbuf_basis_input2_mem1_2_out
*787 mux_left_track_9\.out
*788 mux_top_track_0\.INVTX1_0_\.out
*789 mux_top_track_0\.INVTX1_1_\.out
*790 mux_top_track_0\.mux_2level_tapbuf_basis_input4_mem4_0_out
*791 mux_top_track_0\.mux_2level_tapbuf_basis_input4_mem4_1_out
*792 mux_top_track_0\.mux_2level_tapbuf_basis_input4_mem4_2_out
*793 mux_top_track_0\.out
*794 mux_top_track_16\.INVTX1_0_\.out
*795 mux_top_track_16\.INVTX1_1_\.out
*796 mux_top_track_16\.mux_2level_tapbuf_basis_input4_mem4_0_out
*797 mux_top_track_16\.mux_2level_tapbuf_basis_input4_mem4_1_out
*798 mux_top_track_16\.mux_2level_tapbuf_basis_input4_mem4_2_out
*799 mux_top_track_16\.out
*800 mux_top_track_24\.INVTX1_0_\.out
*801 mux_top_track_24\.INVTX1_1_\.out
*802 mux_top_track_24\.mux_2level_tapbuf_basis_input4_mem4_0_out
*803 mux_top_track_24\.mux_2level_tapbuf_basis_input4_mem4_1_out
*804 mux_top_track_24\.mux_2level_tapbuf_basis_input4_mem4_2_out
*805 mux_top_track_24\.out
*806 mux_top_track_32\.INVTX1_0_\.out
*807 mux_top_track_32\.INVTX1_1_\.out
*808 mux_top_track_32\.mux_2level_tapbuf_basis_input3_mem3_0_out
*809 mux_top_track_32\.mux_2level_tapbuf_basis_input3_mem3_1_out
*810 mux_top_track_32\.mux_2level_tapbuf_basis_input3_mem3_2_out
*811 mux_top_track_32\.mux_2level_tapbuf_basis_input3_mem3_3_out
*812 mux_top_track_32\.out
*813 mux_top_track_8\.INVTX1_0_\.out
*814 mux_top_track_8\.INVTX1_1_\.out
*815 mux_top_track_8\.mux_2level_tapbuf_basis_input3_mem3_0_out
*816 mux_top_track_8\.mux_2level_tapbuf_basis_input3_mem3_1_out
*817 mux_top_track_8\.mux_2level_tapbuf_basis_input3_mem3_2_out
*818 mux_top_track_8\.mux_2level_tapbuf_basis_input3_mem3_3_out
*819 mux_top_track_8\.out
*820 net1
*821 net10
*822 net100
*823 net101
*824 net102
*825 net103
*826 net104
*827 net105
*828 net106
*829 net107
*830 net108
*831 net109
*832 net11
*833 net110
*834 net111
*835 net112
*836 net113
*837 net114
*838 net115
*839 net116
*840 net117
*841 net118
*842 net119
*843 net12
*844 net120
*845 net121
*846 net122
*847 net123
*848 net124
*849 net125
*850 net126
*851 net127
*852 net128
*853 net129
*854 net13
*855 net130
*856 net131
*857 net132
*858 net133
*859 net134
*860 net135
*861 net136
*862 net137
*863 net138
*864 net139
*865 net14
*866 net140
*867 net142
*868 net143
*869 net144
*870 net145
*871 net146
*872 net147
*873 net148
*874 net149
*875 net15
*876 net150
*877 net151
*878 net152
*879 net153
*880 net154
*881 net155
*882 net156
*883 net157
*884 net158
*885 net159
*886 net16
*887 net160
*888 net161
*889 net162
*890 net163
*891 net164
*892 net165
*893 net166
*894 net17
*895 net18
*896 net19
*897 net2
*898 net20
*899 net21
*900 net22
*901 net23
*902 net24
*903 net25
*904 net26
*905 net27
*906 net28
*907 net29
*908 net3
*909 net30
*910 net31
*911 net32
*912 net33
*913 net34
*914 net35
*915 net36
*916 net37
*917 net38
*918 net39
*919 net4
*920 net40
*921 net41
*922 net42
*923 net43
*924 net44
*925 net45
*926 net46
*927 net47
*928 net48
*929 net49
*930 net5
*931 net50
*932 net51
*933 net52
*934 net53
*935 net54
*936 net55
*937 net56
*938 net57
*939 net58
*940 net59
*941 net6
*942 net60
*943 net61
*944 net62
*945 net63
*946 net64
*947 net65
*948 net66
*949 net67
*950 net68
*951 net69
*952 net7
*953 net70
*954 net71
*955 net72
*956 net73
*957 net74
*958 net75
*959 net76
*960 net77
*961 net78
*962 net79
*963 net8
*964 net80
*965 net81
*966 net82
*967 net83
*968 net84
*969 net85
*970 net86
*971 net87
*972 net88
*973 net89
*974 net9
*975 net90
*976 net91
*977 net92
*978 net93
*979 net94
*980 net95
*981 net96
*982 net97
*983 net98
*984 net99
*985 ANTENNA_1
*986 ANTENNA_10
*987 ANTENNA_11
*988 ANTENNA_2
*989 ANTENNA_3
*990 ANTENNA_4
*991 ANTENNA_5
*992 ANTENNA_6
*993 ANTENNA_7
*994 ANTENNA_8
*995 ANTENNA_9
*996 FILLER_0_104
*997 FILLER_0_113
*998 FILLER_0_117
*999 FILLER_0_138
*1000 FILLER_0_14
*1001 FILLER_0_141
*1002 FILLER_0_147
*1003 FILLER_0_151
*1004 FILLER_0_158
*1005 FILLER_0_165
*1006 FILLER_0_169
*1007 FILLER_0_174
*1008 FILLER_0_181
*1009 FILLER_0_189
*1010 FILLER_0_195
*1011 FILLER_0_197
*1012 FILLER_0_202
*1013 FILLER_0_209
*1014 FILLER_0_216
*1015 FILLER_0_225
*1016 FILLER_0_230
*1017 FILLER_0_238
*1018 FILLER_0_245
*1019 FILLER_0_251
*1020 FILLER_0_253
*1021 FILLER_0_258
*1022 FILLER_0_26
*1023 FILLER_0_266
*1024 FILLER_0_274
*1025 FILLER_0_281
*1026 FILLER_0_286
*1027 FILLER_0_29
*1028 FILLER_0_294
*1029 FILLER_0_3
*1030 FILLER_0_300
*1031 FILLER_0_309
*1032 FILLER_0_315
*1033 FILLER_0_322
*1034 FILLER_0_334
*1035 FILLER_0_337
*1036 FILLER_0_342
*1037 FILLER_0_350
*1038 FILLER_0_358
*1039 FILLER_0_365
*1040 FILLER_0_371
*1041 FILLER_0_379
*1042 FILLER_0_385
*1043 FILLER_0_391
*1044 FILLER_0_393
*1045 FILLER_0_405
*1046 FILLER_0_41
*1047 FILLER_0_49
*1048 FILLER_0_55
*1049 FILLER_0_57
*1050 FILLER_0_63
*1051 FILLER_0_71
*1052 FILLER_0_75
*1053 FILLER_0_82
*1054 FILLER_0_85
*1055 FILLER_0_9
*1056 FILLER_0_97
*1057 FILLER_10_107
*1058 FILLER_10_134
*1059 FILLER_10_141
*1060 FILLER_10_15
*1061 FILLER_10_156
*1062 FILLER_10_164
*1063 FILLER_10_181
*1064 FILLER_10_191
*1065 FILLER_10_195
*1066 FILLER_10_197
*1067 FILLER_10_203
*1068 FILLER_10_207
*1069 FILLER_10_217
*1070 FILLER_10_22
*1071 FILLER_10_230
*1072 FILLER_10_237
*1073 FILLER_10_244
*1074 FILLER_10_253
*1075 FILLER_10_258
*1076 FILLER_10_270
*1077 FILLER_10_282
*1078 FILLER_10_29
*1079 FILLER_10_294
*1080 FILLER_10_3
*1081 FILLER_10_306
*1082 FILLER_10_309
*1083 FILLER_10_321
*1084 FILLER_10_327
*1085 FILLER_10_331
*1086 FILLER_10_34
*1087 FILLER_10_343
*1088 FILLER_10_355
*1089 FILLER_10_363
*1090 FILLER_10_365
*1091 FILLER_10_373
*1092 FILLER_10_377
*1093 FILLER_10_389
*1094 FILLER_10_401
*1095 FILLER_10_405
*1096 FILLER_10_41
*1097 FILLER_10_46
*1098 FILLER_10_50
*1099 FILLER_10_72
*1100 FILLER_10_78
*1101 FILLER_10_82
*1102 FILLER_10_85
*1103 FILLER_11_10
*1104 FILLER_11_100
*1105 FILLER_11_110
*1106 FILLER_11_113
*1107 FILLER_11_117
*1108 FILLER_11_141
*1109 FILLER_11_145
*1110 FILLER_11_159
*1111 FILLER_11_166
*1112 FILLER_11_169
*1113 FILLER_11_179
*1114 FILLER_11_196
*1115 FILLER_11_213
*1116 FILLER_11_221
*1117 FILLER_11_225
*1118 FILLER_11_230
*1119 FILLER_11_246
*1120 FILLER_11_253
*1121 FILLER_11_259
*1122 FILLER_11_263
*1123 FILLER_11_270
*1124 FILLER_11_278
*1125 FILLER_11_281
*1126 FILLER_11_293
*1127 FILLER_11_3
*1128 FILLER_11_305
*1129 FILLER_11_317
*1130 FILLER_11_329
*1131 FILLER_11_335
*1132 FILLER_11_337
*1133 FILLER_11_34
*1134 FILLER_11_345
*1135 FILLER_11_349
*1136 FILLER_11_361
*1137 FILLER_11_373
*1138 FILLER_11_385
*1139 FILLER_11_391
*1140 FILLER_11_393
*1141 FILLER_11_401
*1142 FILLER_11_405
*1143 FILLER_11_42
*1144 FILLER_11_47
*1145 FILLER_11_54
*1146 FILLER_11_57
*1147 FILLER_11_62
*1148 FILLER_11_68
*1149 FILLER_11_92
*1150 FILLER_11_96
*1151 FILLER_12_123
*1152 FILLER_12_131
*1153 FILLER_12_138
*1154 FILLER_12_141
*1155 FILLER_12_15
*1156 FILLER_12_163
*1157 FILLER_12_179
*1158 FILLER_12_19
*1159 FILLER_12_192
*1160 FILLER_12_197
*1161 FILLER_12_208
*1162 FILLER_12_215
*1163 FILLER_12_228
*1164 FILLER_12_235
*1165 FILLER_12_242
*1166 FILLER_12_249
*1167 FILLER_12_253
*1168 FILLER_12_258
*1169 FILLER_12_26
*1170 FILLER_12_265
*1171 FILLER_12_277
*1172 FILLER_12_289
*1173 FILLER_12_29
*1174 FILLER_12_3
*1175 FILLER_12_301
*1176 FILLER_12_307
*1177 FILLER_12_309
*1178 FILLER_12_314
*1179 FILLER_12_326
*1180 FILLER_12_338
*1181 FILLER_12_350
*1182 FILLER_12_362
*1183 FILLER_12_365
*1184 FILLER_12_377
*1185 FILLER_12_389
*1186 FILLER_12_401
*1187 FILLER_12_42
*1188 FILLER_12_51
*1189 FILLER_12_76
*1190 FILLER_12_85
*1191 FILLER_12_9
*1192 FILLER_12_92
*1193 FILLER_12_99
*1194 FILLER_13_107
*1195 FILLER_13_111
*1196 FILLER_13_113
*1197 FILLER_13_140
*1198 FILLER_13_155
*1199 FILLER_13_159
*1200 FILLER_13_166
*1201 FILLER_13_169
*1202 FILLER_13_180
*1203 FILLER_13_197
*1204 FILLER_13_207
*1205 FILLER_13_213
*1206 FILLER_13_222
*1207 FILLER_13_225
*1208 FILLER_13_230
*1209 FILLER_13_237
*1210 FILLER_13_244
*1211 FILLER_13_25
*1212 FILLER_13_252
*1213 FILLER_13_262
*1214 FILLER_13_269
*1215 FILLER_13_277
*1216 FILLER_13_281
*1217 FILLER_13_293
*1218 FILLER_13_3
*1219 FILLER_13_305
*1220 FILLER_13_317
*1221 FILLER_13_329
*1222 FILLER_13_33
*1223 FILLER_13_335
*1224 FILLER_13_337
*1225 FILLER_13_349
*1226 FILLER_13_361
*1227 FILLER_13_373
*1228 FILLER_13_385
*1229 FILLER_13_391
*1230 FILLER_13_393
*1231 FILLER_13_405
*1232 FILLER_13_54
*1233 FILLER_13_57
*1234 FILLER_13_62
*1235 FILLER_13_68
*1236 FILLER_13_92
*1237 FILLER_14_107
*1238 FILLER_14_115
*1239 FILLER_14_138
*1240 FILLER_14_141
*1241 FILLER_14_145
*1242 FILLER_14_159
*1243 FILLER_14_171
*1244 FILLER_14_184
*1245 FILLER_14_194
*1246 FILLER_14_197
*1247 FILLER_14_208
*1248 FILLER_14_216
*1249 FILLER_14_226
*1250 FILLER_14_234
*1251 FILLER_14_238
*1252 FILLER_14_248
*1253 FILLER_14_253
*1254 FILLER_14_258
*1255 FILLER_14_26
*1256 FILLER_14_265
*1257 FILLER_14_272
*1258 FILLER_14_284
*1259 FILLER_14_29
*1260 FILLER_14_296
*1261 FILLER_14_3
*1262 FILLER_14_309
*1263 FILLER_14_321
*1264 FILLER_14_333
*1265 FILLER_14_345
*1266 FILLER_14_357
*1267 FILLER_14_363
*1268 FILLER_14_365
*1269 FILLER_14_377
*1270 FILLER_14_389
*1271 FILLER_14_405
*1272 FILLER_14_54
*1273 FILLER_14_82
*1274 FILLER_14_85
*1275 FILLER_15_103
*1276 FILLER_15_110
*1277 FILLER_15_113
*1278 FILLER_15_136
*1279 FILLER_15_16
*1280 FILLER_15_160
*1281 FILLER_15_169
*1282 FILLER_15_179
*1283 FILLER_15_200
*1284 FILLER_15_219
*1285 FILLER_15_223
*1286 FILLER_15_225
*1287 FILLER_15_23
*1288 FILLER_15_239
*1289 FILLER_15_246
*1290 FILLER_15_253
*1291 FILLER_15_260
*1292 FILLER_15_276
*1293 FILLER_15_281
*1294 FILLER_15_293
*1295 FILLER_15_3
*1296 FILLER_15_30
*1297 FILLER_15_305
*1298 FILLER_15_309
*1299 FILLER_15_321
*1300 FILLER_15_326
*1301 FILLER_15_334