*SPEF "ieee 1481-1999"
*DESIGN "sb_4__0_"
*DATE "11:11:11 Fri 11 11, 1111"
*VENDOR "OpenRCX"
*PROGRAM "Parallel Extraction"
*VERSION "1.0"
*DESIGN_FLOW "NAME_SCOPE LOCAL" "PIN_CAP NONE"
*DIVIDER /
*DELIMITER :
*BUS_DELIMITER []
*T_UNIT 1 NS
*C_UNIT 1 PF
*R_UNIT 1 OHM
*L_UNIT 1 HENRY

*NAME_MAP
*1 ccff_head
*2 ccff_tail
*3 chanx_left_in[0]
*4 chanx_left_in[10]
*5 chanx_left_in[11]
*6 chanx_left_in[12]
*7 chanx_left_in[13]
*8 chanx_left_in[14]
*9 chanx_left_in[15]
*10 chanx_left_in[16]
*11 chanx_left_in[17]
*12 chanx_left_in[18]
*13 chanx_left_in[1]
*14 chanx_left_in[2]
*15 chanx_left_in[3]
*16 chanx_left_in[4]
*17 chanx_left_in[5]
*18 chanx_left_in[6]
*19 chanx_left_in[7]
*20 chanx_left_in[8]
*21 chanx_left_in[9]
*22 chanx_left_out[0]
*23 chanx_left_out[10]
*24 chanx_left_out[11]
*25 chanx_left_out[12]
*26 chanx_left_out[13]
*27 chanx_left_out[14]
*28 chanx_left_out[15]
*29 chanx_left_out[16]
*30 chanx_left_out[17]
*31 chanx_left_out[18]
*32 chanx_left_out[1]
*33 chanx_left_out[2]
*34 chanx_left_out[3]
*35 chanx_left_out[4]
*36 chanx_left_out[5]
*37 chanx_left_out[6]
*38 chanx_left_out[7]
*39 chanx_left_out[8]
*40 chanx_left_out[9]
*41 chany_top_in[0]
*42 chany_top_in[10]
*43 chany_top_in[11]
*44 chany_top_in[12]
*45 chany_top_in[13]
*46 chany_top_in[14]
*47 chany_top_in[15]
*48 chany_top_in[16]
*49 chany_top_in[17]
*50 chany_top_in[18]
*51 chany_top_in[1]
*52 chany_top_in[2]
*53 chany_top_in[3]
*54 chany_top_in[4]
*55 chany_top_in[5]
*56 chany_top_in[6]
*57 chany_top_in[7]
*58 chany_top_in[8]
*59 chany_top_in[9]
*60 chany_top_out[0]
*61 chany_top_out[10]
*62 chany_top_out[11]
*63 chany_top_out[12]
*64 chany_top_out[13]
*65 chany_top_out[14]
*66 chany_top_out[15]
*67 chany_top_out[16]
*68 chany_top_out[17]
*69 chany_top_out[18]
*70 chany_top_out[1]
*71 chany_top_out[2]
*72 chany_top_out[3]
*73 chany_top_out[4]
*74 chany_top_out[5]
*75 chany_top_out[6]
*76 chany_top_out[7]
*77 chany_top_out[8]
*78 chany_top_out[9]
*79 left_bottom_grid_top_width_0_height_0_subtile_0__pin_inpad_0_
*80 left_bottom_grid_top_width_0_height_0_subtile_1__pin_inpad_0_
*81 left_bottom_grid_top_width_0_height_0_subtile_2__pin_inpad_0_
*82 left_bottom_grid_top_width_0_height_0_subtile_3__pin_inpad_0_
*83 left_bottom_grid_top_width_0_height_0_subtile_4__pin_inpad_0_
*84 left_bottom_grid_top_width_0_height_0_subtile_5__pin_inpad_0_
*85 left_bottom_grid_top_width_0_height_0_subtile_6__pin_inpad_0_
*86 left_bottom_grid_top_width_0_height_0_subtile_7__pin_inpad_0_
*87 left_top_grid_bottom_width_0_height_0_subtile_0__pin_O_2_
*88 left_top_grid_bottom_width_0_height_0_subtile_0__pin_O_6_
*89 pReset
*90 prog_clk
*91 top_left_grid_right_width_0_height_0_subtile_0__pin_O_1_
*92 top_left_grid_right_width_0_height_0_subtile_0__pin_O_5_
*93 top_right_grid_left_width_0_height_0_subtile_0__pin_inpad_0_
*94 top_right_grid_left_width_0_height_0_subtile_1__pin_inpad_0_
*95 top_right_grid_left_width_0_height_0_subtile_2__pin_inpad_0_
*96 top_right_grid_left_width_0_height_0_subtile_3__pin_inpad_0_
*97 top_right_grid_left_width_0_height_0_subtile_4__pin_inpad_0_
*98 top_right_grid_left_width_0_height_0_subtile_5__pin_inpad_0_
*99 top_right_grid_left_width_0_height_0_subtile_6__pin_inpad_0_
*100 top_right_grid_left_width_0_height_0_subtile_7__pin_inpad_0_
*103 _0000_
*104 _0001_
*105 _0002_
*106 _0003_
*107 _0004_
*108 _0005_
*109 _0006_
*110 _0007_
*111 _0008_
*112 _0009_
*113 _0010_
*114 _0011_
*115 _0012_
*116 _0013_
*117 _0014_
*118 _0015_
*119 _0016_
*120 _0017_
*121 _0018_
*122 _0019_
*123 _0020_
*124 _0021_
*125 _0022_
*126 _0023_
*127 _0024_
*128 _0025_
*129 _0026_
*130 _0027_
*131 _0028_
*132 _0029_
*133 _0030_
*134 _0031_
*135 _0032_
*136 _0033_
*137 _0034_
*138 _0035_
*139 _0036_
*140 _0037_
*141 _0038_
*142 _0039_
*143 _0040_
*144 _0041_
*145 _0042_
*146 _0043_
*147 _0044_
*148 _0045_
*149 _0046_
*150 _0047_
*151 _0048_
*152 _0049_
*153 _0050_
*154 _0051_
*155 _0052_
*156 _0053_
*157 _0054_
*158 _0055_
*159 _0056_
*160 _0057_
*161 _0058_
*162 _0059_
*163 _0060_
*164 _0061_
*165 _0062_
*166 _0063_
*167 _0064_
*168 _0065_
*169 _0066_
*170 _0067_
*171 _0068_
*172 _0069_
*173 _0070_
*174 _0071_
*175 _0072_
*176 _0073_
*177 _0074_
*178 _0075_
*179 _0076_
*180 _0077_
*181 _0078_
*182 _0079_
*183 _0080_
*184 _0081_
*185 _0082_
*186 _0083_
*187 _0084_
*188 _0085_
*189 _0086_
*190 _0087_
*191 _0088_
*192 _0089_
*193 _0090_
*194 _0091_
*195 _0092_
*196 _0093_
*197 _0094_
*198 _0095_
*199 _0096_
*200 _0097_
*201 _0098_
*202 _0099_
*203 _0100_
*204 _0101_
*205 _0102_
*206 _0103_
*207 _0104_
*208 _0105_
*209 _0106_
*210 _0107_
*211 _0108_
*212 _0109_
*213 _0110_
*214 _0111_
*215 _0112_
*216 _0113_
*217 _0114_
*218 _0115_
*219 _0116_
*220 _0117_
*221 _0118_
*222 _0119_
*223 _0120_
*224 _0121_
*225 _0122_
*226 _0123_
*227 _0124_
*228 _0125_
*229 _0126_
*230 _0127_
*231 _0128_
*232 _0129_
*233 _0130_
*234 _0131_
*235 _0132_
*236 _0133_
*237 _0134_
*238 _0135_
*239 _0136_
*240 _0137_
*241 _0138_
*242 _0139_
*243 _0140_
*244 _0141_
*245 _0142_
*246 _0143_
*247 _0144_
*248 _0145_
*249 _0146_
*250 _0147_
*251 _0148_
*252 _0149_
*253 _0150_
*254 _0151_
*255 _0152_
*256 _0153_
*257 _0154_
*258 _0155_
*259 _0156_
*260 _0157_
*261 _0158_
*262 _0159_
*263 _0160_
*264 _0161_
*265 _0162_
*266 _0163_
*267 _0164_
*268 _0165_
*269 _0166_
*270 _0167_
*271 _0168_
*272 _0169_
*273 _0170_
*274 _0171_
*275 _0172_
*276 _0173_
*277 _0174_
*278 _0175_
*279 _0176_
*280 _0177_
*281 _0178_
*282 _0179_
*283 _0180_
*284 _0181_
*285 _0182_
*286 _0183_
*287 _0184_
*288 _0185_
*289 _0186_
*290 _0187_
*291 _0188_
*292 _0189_
*293 _0190_
*294 _0191_
*295 _0192_
*296 _0193_
*297 _0194_
*298 _0195_
*299 _0196_
*300 _0197_
*301 _0198_
*302 _0199_
*303 _0200_
*304 _0201_
*305 _0202_
*306 _0203_
*307 _0204_
*308 _0205_
*309 _0206_
*310 _0207_
*311 _0208_
*312 _0209_
*313 _0210_
*314 _0211_
*315 _0212_
*316 _0213_
*317 _0214_
*318 _0215_
*319 _0216_
*320 _0217_
*321 _0218_
*322 _0219_
*323 _0220_
*324 _0221_
*325 _0222_
*326 _0223_
*327 _0224_
*328 _0225_
*329 _0226_
*330 _0227_
*331 _0228_
*332 _0229_
*333 _0230_
*334 _0231_
*335 _0232_
*336 _0233_
*337 _0234_
*338 _0235_
*339 _0236_
*340 _0237_
*341 _0238_
*342 _0239_
*343 _0240_
*344 _0241_
*345 _0242_
*346 _0243_
*347 _0244_
*348 _0245_
*349 _0246_
*350 _0247_
*351 _0248_
*352 _0249_
*353 _0250_
*354 _0251_
*355 _0252_
*356 _0253_
*357 _0254_
*358 _0255_
*359 _0256_
*360 _0257_
*361 _0258_
*362 _0259_
*363 _0260_
*364 _0261_
*365 _0262_
*366 _0263_
*367 _0264_
*368 _0265_
*369 _0266_
*370 _0267_
*371 _0268_
*372 _0269_
*373 _0270_
*374 _0271_
*375 _0272_
*376 _0273_
*377 _0274_
*378 _0275_
*379 _0276_
*380 _0277_
*381 _0278_
*382 _0279_
*383 _0280_
*384 _0281_
*385 _0282_
*386 _0283_
*387 _0284_
*388 _0285_
*389 _0286_
*390 _0287_
*391 _0288_
*392 _0289_
*393 _0290_
*394 _0291_
*395 _0292_
*396 _0293_
*397 _0294_
*398 _0295_
*399 _0296_
*400 _0297_
*401 _0298_
*402 _0299_
*403 _0300_
*404 _0301_
*405 _0302_
*406 _0303_
*407 _0304_
*408 _0305_
*409 _0306_
*410 _0307_
*411 _0308_
*412 _0309_
*413 _0310_
*414 _0311_
*415 _0312_
*416 _0313_
*417 _0314_
*418 _0315_
*419 _0316_
*420 _0317_
*421 _0318_
*422 _0319_
*423 _0320_
*424 _0321_
*425 _0322_
*426 _0323_
*427 _0324_
*428 _0325_
*429 _0326_
*430 _0327_
*431 _0328_
*432 _0329_
*433 _0330_
*434 _0331_
*435 _0332_
*436 _0333_
*437 _0334_
*438 _0335_
*439 _0336_
*440 _0337_
*441 _0338_
*442 _0339_
*443 _0340_
*444 _0341_
*445 _0342_
*446 _0343_
*447 _0344_
*448 _0345_
*449 _0346_
*450 _0347_
*451 _0348_
*452 _0349_
*453 _0350_
*454 _0351_
*455 _0352_
*456 _0353_
*457 _0354_
*458 _0355_
*459 _0356_
*460 _0357_
*461 _0358_
*462 _0359_
*463 _0360_
*464 _0361_
*465 _0362_
*466 _0363_
*467 _0364_
*468 _0365_
*469 _0366_
*470 _0367_
*471 _0368_
*472 _0369_
*473 _0370_
*474 _0371_
*475 _0372_
*476 _0373_
*477 _0374_
*478 _0375_
*479 _0376_
*480 _0377_
*481 clknet_0_prog_clk
*482 clknet_3_0__leaf_prog_clk
*483 clknet_3_1__leaf_prog_clk
*484 clknet_3_2__leaf_prog_clk
*485 clknet_3_3__leaf_prog_clk
*486 clknet_3_4__leaf_prog_clk
*487 clknet_3_5__leaf_prog_clk
*488 clknet_3_6__leaf_prog_clk
*489 clknet_3_7__leaf_prog_clk
*490 mem_left_track_1\.DFFR_0_\.D
*491 mem_left_track_1\.DFFR_0_\.Q
*492 mem_left_track_1\.DFFR_1_\.Q
*493 mem_left_track_11\.DFFR_0_\.D
*494 mem_left_track_11\.DFFR_0_\.Q
*495 mem_left_track_11\.DFFR_1_\.Q
*496 mem_left_track_13\.DFFR_0_\.Q
*497 mem_left_track_13\.DFFR_1_\.Q
*498 mem_left_track_15\.DFFR_0_\.Q
*499 mem_left_track_15\.DFFR_1_\.Q
*500 mem_left_track_17\.DFFR_0_\.Q
*501 mem_left_track_17\.DFFR_1_\.Q
*502 mem_left_track_19\.DFFR_0_\.Q
*503 mem_left_track_19\.DFFR_1_\.Q
*504 mem_left_track_21\.DFFR_0_\.Q
*505 mem_left_track_21\.DFFR_1_\.Q
*506 mem_left_track_23\.DFFR_0_\.Q
*507 mem_left_track_23\.DFFR_1_\.Q
*508 mem_left_track_25\.DFFR_0_\.Q
*509 mem_left_track_25\.DFFR_1_\.Q
*510 mem_left_track_27\.DFFR_0_\.Q
*511 mem_left_track_27\.DFFR_1_\.Q
*512 mem_left_track_29\.DFFR_0_\.Q
*513 mem_left_track_29\.DFFR_1_\.Q
*514 mem_left_track_3\.DFFR_0_\.Q
*515 mem_left_track_3\.DFFR_1_\.Q
*516 mem_left_track_31\.DFFR_0_\.Q
*517 mem_left_track_31\.DFFR_1_\.Q
*518 mem_left_track_33\.DFFR_0_\.Q
*519 mem_left_track_33\.DFFR_1_\.Q
*520 mem_left_track_35\.DFFR_0_\.Q
*521 mem_left_track_35\.DFFR_1_\.Q
*522 mem_left_track_37\.DFFR_0_\.Q
*523 mem_left_track_5\.DFFR_0_\.Q
*524 mem_left_track_5\.DFFR_1_\.Q
*525 mem_left_track_7\.DFFR_0_\.Q
*526 mem_left_track_7\.DFFR_1_\.Q
*527 mem_left_track_9\.DFFR_0_\.Q
*528 mem_top_track_0\.DFFR_0_\.Q
*529 mem_top_track_0\.DFFR_1_\.Q
*530 mem_top_track_10\.DFFR_0_\.D
*531 mem_top_track_10\.DFFR_0_\.Q
*532 mem_top_track_10\.DFFR_1_\.Q
*533 mem_top_track_12\.DFFR_0_\.Q
*534 mem_top_track_12\.DFFR_1_\.Q
*535 mem_top_track_14\.DFFR_0_\.Q
*536 mem_top_track_14\.DFFR_1_\.Q
*537 mem_top_track_16\.DFFR_0_\.Q
*538 mem_top_track_16\.DFFR_1_\.Q
*539 mem_top_track_18\.DFFR_0_\.Q
*540 mem_top_track_18\.DFFR_1_\.Q
*541 mem_top_track_2\.DFFR_0_\.Q
*542 mem_top_track_2\.DFFR_1_\.Q
*543 mem_top_track_20\.DFFR_0_\.Q
*544 mem_top_track_20\.DFFR_1_\.Q
*545 mem_top_track_22\.DFFR_0_\.Q
*546 mem_top_track_22\.DFFR_1_\.Q
*547 mem_top_track_24\.DFFR_0_\.Q
*548 mem_top_track_24\.DFFR_1_\.Q
*549 mem_top_track_26\.DFFR_0_\.Q
*550 mem_top_track_26\.DFFR_1_\.Q
*551 mem_top_track_28\.DFFR_0_\.Q
*552 mem_top_track_28\.DFFR_1_\.Q
*553 mem_top_track_30\.DFFR_0_\.Q
*554 mem_top_track_30\.DFFR_1_\.Q
*555 mem_top_track_32\.DFFR_0_\.Q
*556 mem_top_track_32\.DFFR_1_\.Q
*557 mem_top_track_34\.DFFR_0_\.Q
*558 mem_top_track_34\.DFFR_1_\.Q
*559 mem_top_track_36\.DFFR_0_\.Q
*560 mem_top_track_4\.DFFR_0_\.Q
*561 mem_top_track_4\.DFFR_1_\.Q
*562 mem_top_track_6\.DFFR_0_\.Q
*563 mem_top_track_6\.DFFR_1_\.Q
*564 mem_top_track_8\.DFFR_0_\.Q
*565 mux_left_track_1\.INVTX1_0_\.out
*566 mux_left_track_1\.INVTX1_1_\.out
*567 mux_left_track_1\.INVTX1_2_\.out
*568 mux_left_track_1\.mux_2level_tapbuf_basis_input2_mem1_0_out
*569 mux_left_track_1\.mux_2level_tapbuf_basis_input2_mem1_1_out
*570 mux_left_track_1\.mux_2level_tapbuf_basis_input2_mem1_2_out
*571 mux_left_track_1\.out
*572 mux_left_track_11\.INVTX1_0_\.out
*573 mux_left_track_11\.INVTX1_1_\.out
*574 mux_left_track_11\.INVTX1_2_\.out
*575 mux_left_track_11\.mux_2level_tapbuf_basis_input2_mem1_0_out
*576 mux_left_track_11\.mux_2level_tapbuf_basis_input2_mem1_1_out
*577 mux_left_track_11\.mux_2level_tapbuf_basis_input2_mem1_2_out
*578 mux_left_track_11\.out
*579 mux_left_track_13\.INVTX1_0_\.out
*580 mux_left_track_13\.INVTX1_2_\.out
*581 mux_left_track_13\.mux_2level_tapbuf_basis_input2_mem1_0_out
*582 mux_left_track_13\.mux_2level_tapbuf_basis_input2_mem1_1_out
*583 mux_left_track_13\.mux_2level_tapbuf_basis_input2_mem1_2_out
*584 mux_left_track_13\.out
*585 mux_left_track_15\.INVTX1_0_\.out
*586 mux_left_track_15\.INVTX1_2_\.out
*587 mux_left_track_15\.mux_2level_tapbuf_basis_input2_mem1_0_out
*588 mux_left_track_15\.mux_2level_tapbuf_basis_input2_mem1_1_out
*589 mux_left_track_15\.mux_2level_tapbuf_basis_input2_mem1_2_out
*590 mux_left_track_15\.out
*591 mux_left_track_17\.INVTX1_0_\.out
*592 mux_left_track_17\.INVTX1_2_\.out
*593 mux_left_track_17\.mux_2level_tapbuf_basis_input2_mem1_0_out
*594 mux_left_track_17\.mux_2level_tapbuf_basis_input2_mem1_1_out
*595 mux_left_track_17\.mux_2level_tapbuf_basis_input2_mem1_2_out
*596 mux_left_track_17\.out
*597 mux_left_track_19\.INVTX1_0_\.out
*598 mux_left_track_19\.mux_2level_tapbuf_basis_input2_mem1_0_out
*599 mux_left_track_19\.mux_2level_tapbuf_basis_input2_mem1_1_out
*600 mux_left_track_19\.mux_2level_tapbuf_basis_input2_mem1_2_out
*601 mux_left_track_19\.out
*602 mux_left_track_21\.INVTX1_0_\.out
*603 mux_left_track_21\.mux_2level_tapbuf_basis_input2_mem1_0_out
*604 mux_left_track_21\.mux_2level_tapbuf_basis_input2_mem1_1_out
*605 mux_left_track_21\.out
*606 mux_left_track_23\.INVTX1_0_\.out
*607 mux_left_track_23\.INVTX1_1_\.out
*608 mux_left_track_23\.mux_2level_tapbuf_basis_input2_mem1_0_out
*609 mux_left_track_23\.mux_2level_tapbuf_basis_input2_mem1_1_out
*610 mux_left_track_23\.out
*611 mux_left_track_25\.INVTX1_0_\.out
*612 mux_left_track_25\.INVTX1_1_\.out
*613 mux_left_track_25\.mux_2level_tapbuf_basis_input2_mem1_0_out
*614 mux_left_track_25\.mux_2level_tapbuf_basis_input2_mem1_1_out
*615 mux_left_track_25\.out
*616 mux_left_track_27\.INVTX1_0_\.out
*617 mux_left_track_27\.INVTX1_1_\.out
*618 mux_left_track_27\.mux_2level_tapbuf_basis_input2_mem1_0_out
*619 mux_left_track_27\.mux_2level_tapbuf_basis_input2_mem1_1_out
*620 mux_left_track_27\.out
*621 mux_left_track_29\.INVTX1_0_\.out
*622 mux_left_track_29\.mux_2level_tapbuf_basis_input2_mem1_0_out
*623 mux_left_track_29\.mux_2level_tapbuf_basis_input2_mem1_1_out
*624 mux_left_track_29\.out
*625 mux_left_track_3\.INVTX1_0_\.out
*626 mux_left_track_3\.mux_2level_tapbuf_basis_input2_mem1_0_out
*627 mux_left_track_3\.mux_2level_tapbuf_basis_input2_mem1_1_out
*628 mux_left_track_3\.mux_2level_tapbuf_basis_input2_mem1_2_out
*629 mux_left_track_3\.out
*630 mux_left_track_31\.INVTX1_0_\.out
*631 mux_left_track_31\.mux_2level_tapbuf_basis_input2_mem1_0_out
*632 mux_left_track_31\.mux_2level_tapbuf_basis_input2_mem1_1_out
*633 mux_left_track_31\.out
*634 mux_left_track_33\.INVTX1_0_\.out
*635 mux_left_track_33\.mux_2level_tapbuf_basis_input2_mem1_0_out
*636 mux_left_track_33\.mux_2level_tapbuf_basis_input2_mem1_1_out
*637 mux_left_track_33\.out
*638 mux_left_track_35\.INVTX1_0_\.out
*639 mux_left_track_35\.mux_2level_tapbuf_basis_input2_mem1_0_out
*640 mux_left_track_35\.mux_2level_tapbuf_basis_input2_mem1_1_out
*641 mux_left_track_35\.out
*642 mux_left_track_37\.INVTX1_0_\.out
*643 mux_left_track_37\.mux_2level_tapbuf_basis_input2_mem1_0_out
*644 mux_left_track_37\.mux_2level_tapbuf_basis_input2_mem1_1_out
*645 mux_left_track_37\.mux_2level_tapbuf_basis_input2_mem1_2_out
*646 mux_left_track_37\.out
*647 mux_left_track_5\.INVTX1_0_\.out
*648 mux_left_track_5\.mux_2level_tapbuf_basis_input2_mem1_0_out
*649 mux_left_track_5\.mux_2level_tapbuf_basis_input2_mem1_1_out
*650 mux_left_track_5\.mux_2level_tapbuf_basis_input2_mem1_2_out
*651 mux_left_track_5\.out
*652 mux_left_track_7\.INVTX1_0_\.out
*653 mux_left_track_7\.mux_2level_tapbuf_basis_input2_mem1_0_out
*654 mux_left_track_7\.mux_2level_tapbuf_basis_input2_mem1_1_out
*655 mux_left_track_7\.mux_2level_tapbuf_basis_input2_mem1_2_out
*656 mux_left_track_7\.out
*657 mux_left_track_9\.INVTX1_0_\.out
*658 mux_left_track_9\.mux_2level_tapbuf_basis_input2_mem1_0_out
*659 mux_left_track_9\.mux_2level_tapbuf_basis_input2_mem1_1_out
*660 mux_left_track_9\.mux_2level_tapbuf_basis_input2_mem1_2_out
*661 mux_left_track_9\.out
*662 mux_top_track_0\.INVTX1_0_\.out
*663 mux_top_track_0\.INVTX1_1_\.out
*664 mux_top_track_0\.INVTX1_2_\.out
*665 mux_top_track_0\.mux_2level_tapbuf_basis_input2_mem1_0_out
*666 mux_top_track_0\.mux_2level_tapbuf_basis_input2_mem1_1_out
*667 mux_top_track_0\.mux_2level_tapbuf_basis_input2_mem1_2_out
*668 mux_top_track_0\.out
*669 mux_top_track_10\.INVTX1_0_\.out
*670 mux_top_track_10\.INVTX1_1_\.out
*671 mux_top_track_10\.INVTX1_2_\.out
*672 mux_top_track_10\.mux_2level_tapbuf_basis_input2_mem1_0_out
*673 mux_top_track_10\.mux_2level_tapbuf_basis_input2_mem1_1_out
*674 mux_top_track_10\.mux_2level_tapbuf_basis_input2_mem1_2_out
*675 mux_top_track_10\.out
*676 mux_top_track_12\.INVTX1_1_\.out
*677 mux_top_track_12\.INVTX1_2_\.out
*678 mux_top_track_12\.mux_2level_tapbuf_basis_input2_mem1_0_out
*679 mux_top_track_12\.mux_2level_tapbuf_basis_input2_mem1_1_out
*680 mux_top_track_12\.mux_2level_tapbuf_basis_input2_mem1_2_out
*681 mux_top_track_12\.out
*682 mux_top_track_14\.INVTX1_1_\.out
*683 mux_top_track_14\.INVTX1_2_\.out
*684 mux_top_track_14\.mux_2level_tapbuf_basis_input2_mem1_0_out
*685 mux_top_track_14\.mux_2level_tapbuf_basis_input2_mem1_1_out
*686 mux_top_track_14\.mux_2level_tapbuf_basis_input2_mem1_2_out
*687 mux_top_track_14\.out
*688 mux_top_track_16\.INVTX1_1_\.out
*689 mux_top_track_16\.INVTX1_2_\.out
*690 mux_top_track_16\.mux_2level_tapbuf_basis_input2_mem1_0_out
*691 mux_top_track_16\.mux_2level_tapbuf_basis_input2_mem1_1_out
*692 mux_top_track_16\.mux_2level_tapbuf_basis_input2_mem1_2_out
*693 mux_top_track_16\.out
*694 mux_top_track_18\.INVTX1_2_\.out
*695 mux_top_track_18\.mux_2level_tapbuf_basis_input2_mem1_0_out
*696 mux_top_track_18\.mux_2level_tapbuf_basis_input2_mem1_1_out
*697 mux_top_track_18\.mux_2level_tapbuf_basis_input2_mem1_2_out
*698 mux_top_track_18\.out
*699 mux_top_track_2\.INVTX1_1_\.out
*700 mux_top_track_2\.INVTX1_2_\.out
*701 mux_top_track_2\.mux_2level_tapbuf_basis_input2_mem1_0_out
*702 mux_top_track_2\.mux_2level_tapbuf_basis_input2_mem1_1_out
*703 mux_top_track_2\.mux_2level_tapbuf_basis_input2_mem1_2_out
*704 mux_top_track_2\.out
*705 mux_top_track_20\.INVTX1_1_\.out
*706 mux_top_track_20\.mux_2level_tapbuf_basis_input2_mem1_0_out
*707 mux_top_track_20\.mux_2level_tapbuf_basis_input2_mem1_1_out
*708 mux_top_track_20\.out
*709 mux_top_track_22\.INVTX1_1_\.out
*710 mux_top_track_22\.mux_2level_tapbuf_basis_input2_mem1_0_out
*711 mux_top_track_22\.mux_2level_tapbuf_basis_input2_mem1_1_out
*712 mux_top_track_22\.out
*713 mux_top_track_24\.INVTX1_0_\.out
*714 mux_top_track_24\.INVTX1_1_\.out
*715 mux_top_track_24\.mux_2level_tapbuf_basis_input2_mem1_0_out
*716 mux_top_track_24\.mux_2level_tapbuf_basis_input2_mem1_1_out
*717 mux_top_track_24\.out
*718 mux_top_track_26\.INVTX1_0_\.out
*719 mux_top_track_26\.INVTX1_1_\.out
*720 mux_top_track_26\.mux_2level_tapbuf_basis_input2_mem1_0_out
*721 mux_top_track_26\.mux_2level_tapbuf_basis_input2_mem1_1_out
*722 mux_top_track_26\.out
*723 mux_top_track_28\.INVTX1_1_\.out
*724 mux_top_track_28\.mux_2level_tapbuf_basis_input2_mem1_0_out
*725 mux_top_track_28\.mux_2level_tapbuf_basis_input2_mem1_1_out
*726 mux_top_track_28\.out
*727 mux_top_track_30\.INVTX1_1_\.out
*728 mux_top_track_30\.mux_2level_tapbuf_basis_input2_mem1_0_out
*729 mux_top_track_30\.mux_2level_tapbuf_basis_input2_mem1_1_out
*730 mux_top_track_30\.out
*731 mux_top_track_32\.INVTX1_1_\.out
*732 mux_top_track_32\.mux_2level_tapbuf_basis_input2_mem1_0_out
*733 mux_top_track_32\.mux_2level_tapbuf_basis_input2_mem1_1_out
*734 mux_top_track_32\.out
*735 mux_top_track_34\.INVTX1_1_\.out
*736 mux_top_track_34\.mux_2level_tapbuf_basis_input2_mem1_0_out
*737 mux_top_track_34\.mux_2level_tapbuf_basis_input2_mem1_1_out
*738 mux_top_track_34\.out
*739 mux_top_track_36\.INVTX1_2_\.out
*740 mux_top_track_36\.mux_2level_tapbuf_basis_input2_mem1_0_out
*741 mux_top_track_36\.mux_2level_tapbuf_basis_input2_mem1_1_out
*742 mux_top_track_36\.mux_2level_tapbuf_basis_input2_mem1_2_out
*743 mux_top_track_36\.out
*744 mux_top_track_4\.INVTX1_2_\.out
*745 mux_top_track_4\.mux_2level_tapbuf_basis_input2_mem1_0_out
*746 mux_top_track_4\.mux_2level_tapbuf_basis_input2_mem1_1_out
*747 mux_top_track_4\.mux_2level_tapbuf_basis_input2_mem1_2_out
*748 mux_top_track_4\.out
*749 mux_top_track_6\.INVTX1_2_\.out
*750 mux_top_track_6\.mux_2level_tapbuf_basis_input2_mem1_0_out
*751 mux_top_track_6\.mux_2level_tapbuf_basis_input2_mem1_1_out
*752 mux_top_track_6\.mux_2level_tapbuf_basis_input2_mem1_2_out
*753 mux_top_track_6\.out
*754 mux_top_track_8\.INVTX1_2_\.out
*755 mux_top_track_8\.mux_2level_tapbuf_basis_input2_mem1_0_out
*756 mux_top_track_8\.mux_2level_tapbuf_basis_input2_mem1_1_out
*757 mux_top_track_8\.mux_2level_tapbuf_basis_input2_mem1_2_out
*758 mux_top_track_8\.out
*759 net1
*760 net10
*761 net100
*762 net101
*763 net102
*764 net103
*765 net104
*766 net105
*767 net106
*768 net107
*769 net108
*770 net109
*771 net11
*772 net110
*773 net111
*774 net112
*775 net113
*776 net114
*777 net115
*778 net116
*779 net117
*780 net118
*781 net119
*782 net12
*783 net120
*784 net121
*785 net122
*786 net123
*787 net124
*788 net125
*789 net126
*790 net127
*791 net128
*792 net129
*793 net13
*794 net130
*795 net131
*796 net132
*797 net133
*798 net134
*799 net135
*800 net136
*801 net137
*802 net14
*803 net15
*804 net16
*805 net17
*806 net18
*807 net19
*808 net2
*809 net20
*810 net21
*811 net22
*812 net23
*813 net24
*814 net25
*815 net26
*816 net27
*817 net28
*818 net29
*819 net3
*820 net30
*821 net31
*822 net32
*823 net33
*824 net34
*825 net35
*826 net36
*827 net37
*828 net38
*829 net39
*830 net4
*831 net40
*832 net41
*833 net42
*834 net43
*835 net44
*836 net45
*837 net46
*838 net47
*839 net48
*840 net49
*841 net5
*842 net50
*843 net51
*844 net52
*845 net53
*846 net54
*847 net55
*848 net56
*849 net57
*850 net58
*851 net59
*852 net6
*853 net60
*854 net61
*855 net62
*856 net63
*857 net64
*858 net65
*859 net66
*860 net67
*861 net68
*862 net69
*863 net7
*864 net70
*865 net71
*866 net72
*867 net73
*868 net74
*869 net75
*870 net76
*871 net77
*872 net78
*873 net79
*874 net8
*875 net80
*876 net81
*877 net82
*878 net83
*879 net84
*880 net85
*881 net86
*882 net87
*883 net88
*884 net89
*885 net9
*886 net90
*887 net91
*888 net92
*889 net93
*890 net94
*891 net95
*892 net96
*893 net97
*894 net98
*895 net99
*896 FILLER_0_104
*897 FILLER_0_113
*898 FILLER_0_121
*899 FILLER_0_132
*900 FILLER_0_141
*901 FILLER_0_146
*902 FILLER_0_154
*903 FILLER_0_160
*904 FILLER_0_169
*905 FILLER_0_174
*906 FILLER_0_186
*907 FILLER_0_194
*908 FILLER_0_197
*909 FILLER_0_20
*910 FILLER_0_205
*911 FILLER_0_210
*912 FILLER_0_222
*913 FILLER_0_225
*914 FILLER_0_230
*915 FILLER_0_238
*916 FILLER_0_245
*917 FILLER_0_251
*918 FILLER_0_253
*919 FILLER_0_258
*920 FILLER_0_270
*921 FILLER_0_278
*922 FILLER_0_281
*923 FILLER_0_286
*924 FILLER_0_29
*925 FILLER_0_294
*926 FILLER_0_3
*927 FILLER_0_306
*928 FILLER_0_309
*929 FILLER_0_314
*930 FILLER_0_322
*931 FILLER_0_329
*932 FILLER_0_335
*933 FILLER_0_337
*934 FILLER_0_342
*935 FILLER_0_354
*936 FILLER_0_362
*937 FILLER_0_365
*938 FILLER_0_37
*939 FILLER_0_370
*940 FILLER_0_377
*941 FILLER_0_385
*942 FILLER_0_390
*943 FILLER_0_393
*944 FILLER_0_399
*945 FILLER_0_41
*946 FILLER_0_53
*947 FILLER_0_57
*948 FILLER_0_62
*949 FILLER_0_70
*950 FILLER_0_76
*951 FILLER_0_85
*952 FILLER_0_9
*953 FILLER_0_91
*954 FILLER_0_99
*955 FILLER_10_108
*956 FILLER_10_115
*957 FILLER_10_127
*958 FILLER_10_139
*959 FILLER_10_141
*960 FILLER_10_153
*961 FILLER_10_165
*962 FILLER_10_177
*963 FILLER_10_189
*964 FILLER_10_195
*965 FILLER_10_197
*966 FILLER_10_209
*967 FILLER_10_221
*968 FILLER_10_233
*969 FILLER_10_245
*970 FILLER_10_251
*971 FILLER_10_253
*972 FILLER_10_26
*973 FILLER_10_265
*974 FILLER_10_277
*975 FILLER_10_289
*976 FILLER_10_29
*977 FILLER_10_3
*978 FILLER_10_301
*979 FILLER_10_307
*980 FILLER_10_309
*981 FILLER_10_321
*982 FILLER_10_333
*983 FILLER_10_345
*984 FILLER_10_357
*985 FILLER_10_363
*986 FILLER_10_365
*987 FILLER_10_371
*988 FILLER_10_375
*989 FILLER_10_38
*990 FILLER_10_387
*991 FILLER_10_399
*992 FILLER_10_42
*993 FILLER_10_63
*994 FILLER_10_70
*995 FILLER_10_78
*996 FILLER_10_82
*997 FILLER_10_85
*998 FILLER_10_96
*999 FILLER_11_103
*1000 FILLER_11_110
*1001 FILLER_11_113
*1002 FILLER_11_118
*1003 FILLER_11_124
*1004 FILLER_11_128
*1005 FILLER_11_140
*1006 FILLER_11_146
*1007 FILLER_11_150
*1008 FILLER_11_157
*1009 FILLER_11_161
*1010 FILLER_11_165
*1011 FILLER_11_169
*1012 FILLER_11_174
*1013 FILLER_11_186
*1014 FILLER_11_198
*1015 FILLER_11_210
*1016 FILLER_11_222
*1017 FILLER_11_225
*1018 FILLER_11_237
*1019 FILLER_11_249
*1020 FILLER_11_26
*1021 FILLER_11_261
*1022 FILLER_11_273
*1023 FILLER_11_279
*1024 FILLER_11_281
*1025 FILLER_11_293
*1026 FILLER_11_3
*1027 FILLER_11_305
*1028 FILLER_11_317
*1029 FILLER_11_329
*1030 FILLER_11_335
*1031 FILLER_11_337
*1032 FILLER_11_349
*1033 FILLER_11_361
*1034 FILLER_11_373
*1035 FILLER_11_385
*1036 FILLER_11_391
*1037 FILLER_11_393
*1038 FILLER_11_405
*1039 FILLER_11_54
*1040 FILLER_11_57
*1041 FILLER_11_62
*1042 FILLER_11_69
*1043 FILLER_11_76
*1044 FILLER_11_80
*1045 FILLER_11_84
*1046 FILLER_11_91
*1047 FILLER_11_99
*1048 FILLER_12_103
*1049 FILLER_12_109
*1050 FILLER_12_113
*1051 FILLER_12_120
*1052 FILLER_12_124
*1053 FILLER_12_128
*1054 FILLER_12_134
*1055 FILLER_12_138
*1056 FILLER_12_141
*1057 FILLER_12_147
*1058 FILLER_12_154
*1059 FILLER_12_161
*1060 FILLER_12_168
*1061 FILLER_12_180
*1062 FILLER_12_188
*1063 FILLER_12_193
*1064 FILLER_12_197
*1065 FILLER_12_209
*1066 FILLER_12_221
*1067 FILLER_12_233
*1068 FILLER_12_245
*1069 FILLER_12_251
*1070 FILLER_12_253
*1071 FILLER_12_26
*1072 FILLER_12_264
*1073 FILLER_12_276
*1074 FILLER_12_288
*1075 FILLER_12_29
*1076 FILLER_12_3
*1077 FILLER_12_300
*1078 FILLER_12_309
*1079 FILLER_12_321
*1080 FILLER_12_326
*1081 FILLER_12_338
*1082 FILLER_12_34
*1083 FILLER_12_350
*1084 FILLER_12_362
*1085 FILLER_12_365
*1086 FILLER_12_377
*1087 FILLER_12_389
*1088 FILLER_12_405
*1089 FILLER_12_45
*1090 FILLER_12_49
*1091 FILLER_12_70
*1092 FILLER_12_78
*1093 FILLER_12_82
*1094 FILLER_12_85
*1095 FILLER_12_96
*1096 FILLER_13_110
*1097 FILLER_13_113
*1098 FILLER_13_124
*1099 FILLER_13_131
*1100 FILLER_13_138
*1101 FILLER_13_145
*1102 FILLER_13_15
*1103 FILLER_13_152
*1104 FILLER_13_159
*1105 FILLER_13_166
*1106 FILLER_13_169
*1107 FILLER_13_174
*1108 FILLER_13_183
*1109 FILLER_13_195
*1110 FILLER_13_207
*1111 FILLER_13_219
*1112 FILLER_13_223
*1113 FILLER_13_225
*1114 FILLER_13_237
*1115 FILLER_13_249
*1116 FILLER_13_261
*1117 FILLER_13_273
*1118 FILLER_13_279
*1119 FILLER_13_281
*1120 FILLER_13_293
*1121 FILLER_13_3
*1122 FILLER_13_305
*1123 FILLER_13_317
*1124 FILLER_13_329
*1125 FILLER_13_335
*1126 FILLER_13_337
*1127 FILLER_13_349
*1128 FILLER_13_36
*1129 FILLER_13_361
*1130 FILLER_13_366
*1131 FILLER_13_378
*1132 FILLER_13_390
*1133 FILLER_13_393
*1134 FILLER_13_405
*1135 FILLER_13_43
*1136 FILLER_13_54
*1137 FILLER_13_57
*1138 FILLER_13_62
*1139 FILLER_13_69
*1140 FILLER_13_9
*1141 FILLER_13_93
*1142 FILLER_14_105
*1143 FILLER_14_112
*1144 FILLER_14_119
*1145 FILLER_14_126
*1146 FILLER_14_133
*1147 FILLER_14_139
*1148 FILLER_14_141
*1149 FILLER_14_147
*1150 FILLER_14_151
*1151 FILLER_14_160
*1152 FILLER_14_167
*1153 FILLER_14_178
*1154 FILLER_14_185
*1155 FILLER_14_194
*1156 FILLER_14_197
*1157 FILLER_14_202
*1158 FILLER_14_209
*1159 FILLER_14_221
*1160 FILLER_14_233
*1161 FILLER_14_245
*1162 FILLER_14_251
*1163 FILLER_14_253
*1164 FILLER_14_258
*1165 FILLER_14_26
*1166 FILLER_14_265
*1167 FILLER_14_277
*1168 FILLER_14_289
*1169 FILLER_14_29
*1170 FILLER_14_3
*1171 FILLER_14_301
*1172 FILLER_14_307
*1173 FILLER_14_309
*1174 FILLER_14_321
*1175 FILLER_14_333
*1176 FILLER_14_34
*1177 FILLER_14_345
*1178 FILLER_14_357
*1179 FILLER_14_363
*1180 FILLER_14_365
*1181 FILLER_14_370
*1182 FILLER_14_382
*1183 FILLER_14_394
*1184 FILLER_14_406
*1185 FILLER_14_58
*1186 FILLER_14_82
*1187 FILLER_14_85
*1188 FILLER_14_91
*1189 FILLER_14_98
*1190 FILLER_15_106
*1191 FILLER_15_113
*1192 FILLER_15_117
*1193 FILLER_15_121
*1194 FILLER_15_128
*1195 FILLER_15_137
*1196 FILLER_15_144
*1197 FILLER_15_151
*1198 FILLER_15_155
*1199 FILLER_15_159
*1200 FILLER_15_166
*1201 FILLER_15_169
*1202 FILLER_15_178
*1203 FILLER_15_185
*1204 FILLER_15_194
*1205 FILLER_15_203
*1206 FILLER_15_210
*1207 FILLER_15_222
*1208 FILLER_15_225
*1209 FILLER_15_237
*1210 FILLER_15_249
*1211 FILLER_15_26
*1212 FILLER_15_261
*1213 FILLER_15_273
*1214 FILLER_15_279
*1215 FILLER_15_281
*1216 FILLER_15_293
*1217 FILLER_15_3
*1218 FILLER_15_305
*1219 FILLER_15_313
*1220 FILLER_15_317
*1221 FILLER_15_329
*1222 FILLER_15_335
*1223 FILLER_15_337
*1224 FILLER_15_349
*1225 FILLER_15_361
*1226 FILLER_15_373
*1227 FILLER_15_385
*1228 FILLER_15_391
*1229 FILLER_15_393
*1230 FILLER_15_405
*1231 FILLER_15_54
*1232 FILLER_15_57
*1233 FILLER_15_62
*1234 FILLER_15_70
*1235 FILLER_15_91
*1236 FILLER_15_95
*1237 FILLER_15_99
*1238 FILLER_16_108
*1239 FILLER_16_114
*1240 FILLER_16_118
*1241 FILLER_16_125
*1242 FILLER_16_132
*1243 FILLER_16_141
*1244 FILLER_16_147
*1245 FILLER_16_158
*1246 FILLER_16_166
*1247 FILLER_16_171
*1248 FILLER_16_178
*1249 FILLER_16_185
*1250 FILLER_16_192
*1251 FILLER_16_197
*1252 FILLER_16_204
*1253 FILLER_16_211
*1254 FILLER_16_223
*1255 FILLER_16_235
*1256 FILLER_16_247
*1257 FILLER_16_251
*1258 FILLER_16_253
*1259 FILLER_16_26
*1260 FILLER_16_265
*1261 FILLER_16_277
*1262 FILLER_16_289
*1263 FILLER_16_29
*1264 FILLER_16_3
*1265 FILLER_16_301
*1266 FILLER_16_307
*1267 FILLER_16_309
*1268 FILLER_16_321
*1269 FILLER_16_33
*1270 FILLER_16_333
*1271 FILLER_16_345
*1272 FILLER_16_357
*1273 FILLER_16_363
*1274 FILLER_16_365
*1275 FILLER_16_377
*1276 FILLER_16_389
*1277 FILLER_16_401
*1278 FILLER_16_54
*1279 FILLER_16_82
*1280 FILLER_16_85
*1281 FILLER_16_96
*1282 FILLER_17_100
*1283 FILLER_17_109
*1284 FILLER_17_113
*1285 FILLER_17_123
*1286 FILLER_17_130
*1287 FILLER_17_139
*1288 FILLER_17_146
*1289 FILLER_17_150
*1290 FILLER_17_159
*1291 FILLER_17_166
*1292 FILLER_17_169
*1293 FILLER_17_175
*1294 FILLER_17_179
*1295 FILLER_17_186
*1296 FILLER_17_193
*1297 FILLER_17_204
*1298 FILLER_17_211
*1299 FILLER_17_215
*1300 FILLER_17_219
*1301 FILLER_17_223
*1302 FILLER_17_225
*1303 FILLER_17_231
*1304 FILLER_17_238
*1305 FILLER_17_245
*1306 FILLER_17_257
*1307 FILLER_17_269
*1308 FILLER_17_277
*1309 FILLER_17_281
*1310 FILLER_17_285
*1311 FILLER_17_289
*1312 FILLER_17_3
*1313 FILLER_17_301
*1314 FILLER_17_313
*1315 FILLER_17_325
*1316 FILLER_17_33
*1317 FILLER_17_333