*SPEF "ieee 1481-1999"
*DESIGN "user_project_wrapper"
*DATE "11:11:11 Fri 11 11, 1111"
*VENDOR "OpenRCX"
*PROGRAM "Parallel Extraction"
*VERSION "1.0"
*DESIGN_FLOW "NAME_SCOPE LOCAL" "PIN_CAP NONE"
*DIVIDER /
*DELIMITER :
*BUS_DELIMITER []
*T_UNIT 1 NS
*C_UNIT 1 PF
*R_UNIT 1 OHM
*L_UNIT 1 HENRY

*NAME_MAP
*1 analog_io[0]
*2 analog_io[10]
*3 analog_io[11]
*4 analog_io[12]
*5 analog_io[13]
*6 analog_io[14]
*7 analog_io[15]
*8 analog_io[16]
*9 analog_io[17]
*10 analog_io[18]
*11 analog_io[19]
*12 analog_io[1]
*13 analog_io[20]
*14 analog_io[21]
*15 analog_io[22]
*16 analog_io[23]
*17 analog_io[24]
*18 analog_io[25]
*19 analog_io[26]
*20 analog_io[27]
*21 analog_io[28]
*22 analog_io[2]
*23 analog_io[3]
*24 analog_io[4]
*25 analog_io[5]
*26 analog_io[6]
*27 analog_io[7]
*28 analog_io[8]
*29 analog_io[9]
*30 io_in[0]
*31 io_in[10]
*32 io_in[11]
*33 io_in[12]
*34 io_in[13]
*35 io_in[14]
*36 io_in[15]
*37 io_in[16]
*38 io_in[17]
*39 io_in[18]
*40 io_in[19]
*41 io_in[1]
*42 io_in[20]
*43 io_in[21]
*44 io_in[22]
*45 io_in[23]
*46 io_in[24]
*47 io_in[25]
*48 io_in[26]
*49 io_in[27]
*50 io_in[28]
*51 io_in[29]
*52 io_in[2]
*53 io_in[30]
*54 io_in[31]
*55 io_in[32]
*56 io_in[33]
*57 io_in[34]
*58 io_in[35]
*59 io_in[36]
*60 io_in[37]
*61 io_in[3]
*62 io_in[4]
*63 io_in[5]
*64 io_in[6]
*65 io_in[7]
*66 io_in[8]
*67 io_in[9]
*68 io_oeb[0]
*69 io_oeb[10]
*70 io_oeb[11]
*71 io_oeb[12]
*72 io_oeb[13]
*73 io_oeb[14]
*74 io_oeb[15]
*75 io_oeb[16]
*76 io_oeb[17]
*77 io_oeb[18]
*78 io_oeb[19]
*79 io_oeb[1]
*80 io_oeb[20]
*81 io_oeb[21]
*82 io_oeb[22]
*83 io_oeb[23]
*84 io_oeb[24]
*85 io_oeb[25]
*86 io_oeb[26]
*87 io_oeb[27]
*88 io_oeb[28]
*89 io_oeb[29]
*90 io_oeb[2]
*91 io_oeb[30]
*92 io_oeb[31]
*93 io_oeb[32]
*94 io_oeb[33]
*95 io_oeb[34]
*96 io_oeb[35]
*97 io_oeb[36]
*98 io_oeb[37]
*99 io_oeb[3]
*100 io_oeb[4]
*101 io_oeb[5]
*102 io_oeb[6]
*103 io_oeb[7]
*104 io_oeb[8]
*105 io_oeb[9]
*106 io_out[0]
*107 io_out[10]
*108 io_out[11]
*109 io_out[12]
*110 io_out[13]
*111 io_out[14]
*112 io_out[15]
*113 io_out[16]
*114 io_out[17]
*115 io_out[18]
*116 io_out[19]
*117 io_out[1]
*118 io_out[20]
*119 io_out[21]
*120 io_out[22]
*121 io_out[23]
*122 io_out[24]
*123 io_out[25]
*124 io_out[26]
*125 io_out[27]
*126 io_out[28]
*127 io_out[29]
*128 io_out[2]
*129 io_out[30]
*130 io_out[31]
*131 io_out[32]
*132 io_out[33]
*133 io_out[34]
*134 io_out[35]
*135 io_out[36]
*136 io_out[37]
*137 io_out[3]
*138 io_out[4]
*139 io_out[5]
*140 io_out[6]
*141 io_out[7]
*142 io_out[8]
*143 io_out[9]
*144 la_data_in[0]
*145 la_data_in[100]
*146 la_data_in[101]
*147 la_data_in[102]
*148 la_data_in[103]
*149 la_data_in[104]
*150 la_data_in[105]
*151 la_data_in[106]
*152 la_data_in[107]
*153 la_data_in[108]
*154 la_data_in[109]
*155 la_data_in[10]
*156 la_data_in[110]
*157 la_data_in[111]
*158 la_data_in[112]
*159 la_data_in[113]
*160 la_data_in[114]
*161 la_data_in[115]
*162 la_data_in[116]
*163 la_data_in[117]
*164 la_data_in[118]
*165 la_data_in[119]
*166 la_data_in[11]
*167 la_data_in[120]
*168 la_data_in[121]
*169 la_data_in[122]
*170 la_data_in[123]
*171 la_data_in[124]
*172 la_data_in[125]
*173 la_data_in[126]
*174 la_data_in[127]
*175 la_data_in[12]
*176 la_data_in[13]
*177 la_data_in[14]
*178 la_data_in[15]
*179 la_data_in[16]
*180 la_data_in[17]
*181 la_data_in[18]
*182 la_data_in[19]
*183 la_data_in[1]
*184 la_data_in[20]
*185 la_data_in[21]
*186 la_data_in[22]
*187 la_data_in[23]
*188 la_data_in[24]
*189 la_data_in[25]
*190 la_data_in[26]
*191 la_data_in[27]
*192 la_data_in[28]
*193 la_data_in[29]
*194 la_data_in[2]
*195 la_data_in[30]
*196 la_data_in[31]
*197 la_data_in[32]
*198 la_data_in[33]
*199 la_data_in[34]
*200 la_data_in[35]
*201 la_data_in[36]
*202 la_data_in[37]
*203 la_data_in[38]
*204 la_data_in[39]
*205 la_data_in[3]
*206 la_data_in[40]
*207 la_data_in[41]
*208 la_data_in[42]
*209 la_data_in[43]
*210 la_data_in[44]
*211 la_data_in[45]
*212 la_data_in[46]
*213 la_data_in[47]
*214 la_data_in[48]
*215 la_data_in[49]
*216 la_data_in[4]
*217 la_data_in[50]
*218 la_data_in[51]
*219 la_data_in[52]
*220 la_data_in[53]
*221 la_data_in[54]
*222 la_data_in[55]
*223 la_data_in[56]
*224 la_data_in[57]
*225 la_data_in[58]
*226 la_data_in[59]
*227 la_data_in[5]
*228 la_data_in[60]
*229 la_data_in[61]
*230 la_data_in[62]
*231 la_data_in[63]
*232 la_data_in[64]
*233 la_data_in[65]
*234 la_data_in[66]
*235 la_data_in[67]
*236 la_data_in[68]
*237 la_data_in[69]
*238 la_data_in[6]
*239 la_data_in[70]
*240 la_data_in[71]
*241 la_data_in[72]
*242 la_data_in[73]
*243 la_data_in[74]
*244 la_data_in[75]
*245 la_data_in[76]
*246 la_data_in[77]
*247 la_data_in[78]
*248 la_data_in[79]
*249 la_data_in[7]
*250 la_data_in[80]
*251 la_data_in[81]
*252 la_data_in[82]
*253 la_data_in[83]
*254 la_data_in[84]
*255 la_data_in[85]
*256 la_data_in[86]
*257 la_data_in[87]
*258 la_data_in[88]
*259 la_data_in[89]
*260 la_data_in[8]
*261 la_data_in[90]
*262 la_data_in[91]
*263 la_data_in[92]
*264 la_data_in[93]
*265 la_data_in[94]
*266 la_data_in[95]
*267 la_data_in[96]
*268 la_data_in[97]
*269 la_data_in[98]
*270 la_data_in[99]
*271 la_data_in[9]
*272 la_data_out[0]
*273 la_data_out[100]
*274 la_data_out[101]
*275 la_data_out[102]
*276 la_data_out[103]
*277 la_data_out[104]
*278 la_data_out[105]
*279 la_data_out[106]
*280 la_data_out[107]
*281 la_data_out[108]
*282 la_data_out[109]
*283 la_data_out[10]
*284 la_data_out[110]
*285 la_data_out[111]
*286 la_data_out[112]
*287 la_data_out[113]
*288 la_data_out[114]
*289 la_data_out[115]
*290 la_data_out[116]
*291 la_data_out[117]
*292 la_data_out[118]
*293 la_data_out[119]
*294 la_data_out[11]
*295 la_data_out[120]
*296 la_data_out[121]
*297 la_data_out[122]
*298 la_data_out[123]
*299 la_data_out[124]
*300 la_data_out[125]
*301 la_data_out[126]
*302 la_data_out[127]
*303 la_data_out[12]
*304 la_data_out[13]
*305 la_data_out[14]
*306 la_data_out[15]
*307 la_data_out[16]
*308 la_data_out[17]
*309 la_data_out[18]
*310 la_data_out[19]
*311 la_data_out[1]
*312 la_data_out[20]
*313 la_data_out[21]
*314 la_data_out[22]
*315 la_data_out[23]
*316 la_data_out[24]
*317 la_data_out[25]
*318 la_data_out[26]
*319 la_data_out[27]
*320 la_data_out[28]
*321 la_data_out[29]
*322 la_data_out[2]
*323 la_data_out[30]
*324 la_data_out[31]
*325 la_data_out[32]
*326 la_data_out[33]
*327 la_data_out[34]
*328 la_data_out[35]
*329 la_data_out[36]
*330 la_data_out[37]
*331 la_data_out[38]
*332 la_data_out[39]
*333 la_data_out[3]
*334 la_data_out[40]
*335 la_data_out[41]
*336 la_data_out[42]
*337 la_data_out[43]
*338 la_data_out[44]
*339 la_data_out[45]
*340 la_data_out[46]
*341 la_data_out[47]
*342 la_data_out[48]
*343 la_data_out[49]
*344 la_data_out[4]
*345 la_data_out[50]
*346 la_data_out[51]
*347 la_data_out[52]
*348 la_data_out[53]
*349 la_data_out[54]
*350 la_data_out[55]
*351 la_data_out[56]
*352 la_data_out[57]
*353 la_data_out[58]
*354 la_data_out[59]
*355 la_data_out[5]
*356 la_data_out[60]
*357 la_data_out[61]
*358 la_data_out[62]
*359 la_data_out[63]
*360 la_data_out[64]
*361 la_data_out[65]
*362 la_data_out[66]
*363 la_data_out[67]
*364 la_data_out[68]
*365 la_data_out[69]
*366 la_data_out[6]
*367 la_data_out[70]
*368 la_data_out[71]
*369 la_data_out[72]
*370 la_data_out[73]
*371 la_data_out[74]
*372 la_data_out[75]
*373 la_data_out[76]
*374 la_data_out[77]
*375 la_data_out[78]
*376 la_data_out[79]
*377 la_data_out[7]
*378 la_data_out[80]
*379 la_data_out[81]
*380 la_data_out[82]
*381 la_data_out[83]
*382 la_data_out[84]
*383 la_data_out[85]
*384 la_data_out[86]
*385 la_data_out[87]
*386 la_data_out[88]
*387 la_data_out[89]
*388 la_data_out[8]
*389 la_data_out[90]
*390 la_data_out[91]
*391 la_data_out[92]
*392 la_data_out[93]
*393 la_data_out[94]
*394 la_data_out[95]
*395 la_data_out[96]
*396 la_data_out[97]
*397 la_data_out[98]
*398 la_data_out[99]
*399 la_data_out[9]
*400 la_oenb[0]
*401 la_oenb[100]
*402 la_oenb[101]
*403 la_oenb[102]
*404 la_oenb[103]
*405 la_oenb[104]
*406 la_oenb[105]
*407 la_oenb[106]
*408 la_oenb[107]
*409 la_oenb[108]
*410 la_oenb[109]
*411 la_oenb[10]
*412 la_oenb[110]
*413 la_oenb[111]
*414 la_oenb[112]
*415 la_oenb[113]
*416 la_oenb[114]
*417 la_oenb[115]
*418 la_oenb[116]
*419 la_oenb[117]
*420 la_oenb[118]
*421 la_oenb[119]
*422 la_oenb[11]
*423 la_oenb[120]
*424 la_oenb[121]
*425 la_oenb[122]
*426 la_oenb[123]
*427 la_oenb[124]
*428 la_oenb[125]
*429 la_oenb[126]
*430 la_oenb[127]
*431 la_oenb[12]
*432 la_oenb[13]
*433 la_oenb[14]
*434 la_oenb[15]
*435 la_oenb[16]
*436 la_oenb[17]
*437 la_oenb[18]
*438 la_oenb[19]
*439 la_oenb[1]
*440 la_oenb[20]
*441 la_oenb[21]
*442 la_oenb[22]
*443 la_oenb[23]
*444 la_oenb[24]
*445 la_oenb[25]
*446 la_oenb[26]
*447 la_oenb[27]
*448 la_oenb[28]
*449 la_oenb[29]
*450 la_oenb[2]
*451 la_oenb[30]
*452 la_oenb[31]
*453 la_oenb[32]
*454 la_oenb[33]
*455 la_oenb[34]
*456 la_oenb[35]
*457 la_oenb[36]
*458 la_oenb[37]
*459 la_oenb[38]
*460 la_oenb[39]
*461 la_oenb[3]
*462 la_oenb[40]
*463 la_oenb[41]
*464 la_oenb[42]
*465 la_oenb[43]
*466 la_oenb[44]
*467 la_oenb[45]
*468 la_oenb[46]
*469 la_oenb[47]
*470 la_oenb[48]
*471 la_oenb[49]
*472 la_oenb[4]
*473 la_oenb[50]
*474 la_oenb[51]
*475 la_oenb[52]
*476 la_oenb[53]
*477 la_oenb[54]
*478 la_oenb[55]
*479 la_oenb[56]
*480 la_oenb[57]
*481 la_oenb[58]
*482 la_oenb[59]
*483 la_oenb[5]
*484 la_oenb[60]
*485 la_oenb[61]
*486 la_oenb[62]
*487 la_oenb[63]
*488 la_oenb[64]
*489 la_oenb[65]
*490 la_oenb[66]
*491 la_oenb[67]
*492 la_oenb[68]
*493 la_oenb[69]
*494 la_oenb[6]
*495 la_oenb[70]
*496 la_oenb[71]
*497 la_oenb[72]
*498 la_oenb[73]
*499 la_oenb[74]
*500 la_oenb[75]
*501 la_oenb[76]
*502 la_oenb[77]
*503 la_oenb[78]
*504 la_oenb[79]
*505 la_oenb[7]
*506 la_oenb[80]
*507 la_oenb[81]
*508 la_oenb[82]
*509 la_oenb[83]
*510 la_oenb[84]
*511 la_oenb[85]
*512 la_oenb[86]
*513 la_oenb[87]
*514 la_oenb[88]
*515 la_oenb[89]
*516 la_oenb[8]
*517 la_oenb[90]
*518 la_oenb[91]
*519 la_oenb[92]
*520 la_oenb[93]
*521 la_oenb[94]
*522 la_oenb[95]
*523 la_oenb[96]
*524 la_oenb[97]
*525 la_oenb[98]
*526 la_oenb[99]
*527 la_oenb[9]
*528 user_clock2
*529 user_irq[0]
*530 user_irq[1]
*531 user_irq[2]
*534 wb_clk_i
*535 wb_rst_i
*536 wbs_ack_o
*537 wbs_adr_i[0]
*538 wbs_adr_i[10]
*539 wbs_adr_i[11]
*540 wbs_adr_i[12]
*541 wbs_adr_i[13]
*542 wbs_adr_i[14]
*543 wbs_adr_i[15]
*544 wbs_adr_i[16]
*545 wbs_adr_i[17]
*546 wbs_adr_i[18]
*547 wbs_adr_i[19]
*548 wbs_adr_i[1]
*549 wbs_adr_i[20]
*550 wbs_adr_i[21]
*551 wbs_adr_i[22]
*552 wbs_adr_i[23]
*553 wbs_adr_i[24]
*554 wbs_adr_i[25]
*555 wbs_adr_i[26]
*556 wbs_adr_i[27]
*557 wbs_adr_i[28]
*558 wbs_adr_i[29]
*559 wbs_adr_i[2]
*560 wbs_adr_i[30]
*561 wbs_adr_i[31]
*562 wbs_adr_i[3]
*563 wbs_adr_i[4]
*564 wbs_adr_i[5]
*565 wbs_adr_i[6]
*566 wbs_adr_i[7]
*567 wbs_adr_i[8]
*568 wbs_adr_i[9]
*569 wbs_cyc_i
*570 wbs_dat_i[0]
*571 wbs_dat_i[10]
*572 wbs_dat_i[11]
*573 wbs_dat_i[12]
*574 wbs_dat_i[13]
*575 wbs_dat_i[14]
*576 wbs_dat_i[15]
*577 wbs_dat_i[16]
*578 wbs_dat_i[17]
*579 wbs_dat_i[18]
*580 wbs_dat_i[19]
*581 wbs_dat_i[1]
*582 wbs_dat_i[20]
*583 wbs_dat_i[21]
*584 wbs_dat_i[22]
*585 wbs_dat_i[23]
*586 wbs_dat_i[24]
*587 wbs_dat_i[25]
*588 wbs_dat_i[26]
*589 wbs_dat_i[27]
*590 wbs_dat_i[28]
*591 wbs_dat_i[29]
*592 wbs_dat_i[2]
*593 wbs_dat_i[30]
*594 wbs_dat_i[31]
*595 wbs_dat_i[3]
*596 wbs_dat_i[4]
*597 wbs_dat_i[5]
*598 wbs_dat_i[6]
*599 wbs_dat_i[7]
*600 wbs_dat_i[8]
*601 wbs_dat_i[9]
*602 wbs_dat_o[0]
*603 wbs_dat_o[10]
*604 wbs_dat_o[11]
*605 wbs_dat_o[12]
*606 wbs_dat_o[13]
*607 wbs_dat_o[14]
*608 wbs_dat_o[15]
*609 wbs_dat_o[16]
*610 wbs_dat_o[17]
*611 wbs_dat_o[18]
*612 wbs_dat_o[19]
*613 wbs_dat_o[1]
*614 wbs_dat_o[20]
*615 wbs_dat_o[21]
*616 wbs_dat_o[22]
*617 wbs_dat_o[23]
*618 wbs_dat_o[24]
*619 wbs_dat_o[25]
*620 wbs_dat_o[26]
*621 wbs_dat_o[27]
*622 wbs_dat_o[28]
*623 wbs_dat_o[29]
*624 wbs_dat_o[2]
*625 wbs_dat_o[30]
*626 wbs_dat_o[31]
*627 wbs_dat_o[3]
*628 wbs_dat_o[4]
*629 wbs_dat_o[5]
*630 wbs_dat_o[6]
*631 wbs_dat_o[7]
*632 wbs_dat_o[8]
*633 wbs_dat_o[9]
*634 wbs_sel_i[0]
*635 wbs_sel_i[1]
*636 wbs_sel_i[2]
*637 wbs_sel_i[3]
*638 wbs_stb_i
*639 wbs_we_i
*640 ccff_tail_fm
*641 ANTENNA__175__A
*642 ANTENNA_fpga_top_ccff_head
*643 ANTENNA_fpga_top_clk
*644 ANTENNA_fpga_top_gfpga_pad_GPIO_PAD_in\[0\]
*645 ANTENNA_fpga_top_gfpga_pad_GPIO_PAD_in\[10\]
*646 ANTENNA_fpga_top_gfpga_pad_GPIO_PAD_in\[11\]
*647 ANTENNA_fpga_top_gfpga_pad_GPIO_PAD_in\[12\]
*648 ANTENNA_fpga_top_gfpga_pad_GPIO_PAD_in\[13\]
*649 ANTENNA_fpga_top_gfpga_pad_GPIO_PAD_in\[14\]
*650 ANTENNA_fpga_top_gfpga_pad_GPIO_PAD_in\[15\]
*651 ANTENNA_fpga_top_gfpga_pad_GPIO_PAD_in\[16\]
*652 ANTENNA_fpga_top_gfpga_pad_GPIO_PAD_in\[17\]
*653 ANTENNA_fpga_top_gfpga_pad_GPIO_PAD_in\[18\]
*654 ANTENNA_fpga_top_gfpga_pad_GPIO_PAD_in\[19\]
*655 ANTENNA_fpga_top_gfpga_pad_GPIO_PAD_in\[1\]
*656 ANTENNA_fpga_top_gfpga_pad_GPIO_PAD_in\[20\]
*657 ANTENNA_fpga_top_gfpga_pad_GPIO_PAD_in\[21\]
*658 ANTENNA_fpga_top_gfpga_pad_GPIO_PAD_in\[22\]
*659 ANTENNA_fpga_top_gfpga_pad_GPIO_PAD_in\[23\]
*660 ANTENNA_fpga_top_gfpga_pad_GPIO_PAD_in\[24\]
*661 ANTENNA_fpga_top_gfpga_pad_GPIO_PAD_in\[25\]
*662 ANTENNA_fpga_top_gfpga_pad_GPIO_PAD_in\[26\]
*663 ANTENNA_fpga_top_gfpga_pad_GPIO_PAD_in\[27\]
*664 ANTENNA_fpga_top_gfpga_pad_GPIO_PAD_in\[28\]
*665 ANTENNA_fpga_top_gfpga_pad_GPIO_PAD_in\[29\]
*666 ANTENNA_fpga_top_gfpga_pad_GPIO_PAD_in\[2\]
*667 ANTENNA_fpga_top_gfpga_pad_GPIO_PAD_in\[30\]
*668 ANTENNA_fpga_top_gfpga_pad_GPIO_PAD_in\[31\]
*669 ANTENNA_fpga_top_gfpga_pad_GPIO_PAD_in\[32\]
*670 ANTENNA_fpga_top_gfpga_pad_GPIO_PAD_in\[33\]
*671 ANTENNA_fpga_top_gfpga_pad_GPIO_PAD_in\[34\]
*672 ANTENNA_fpga_top_gfpga_pad_GPIO_PAD_in\[35\]
*673 ANTENNA_fpga_top_gfpga_pad_GPIO_PAD_in\[36\]
*674 ANTENNA_fpga_top_gfpga_pad_GPIO_PAD_in\[37\]
*675 ANTENNA_fpga_top_gfpga_pad_GPIO_PAD_in\[38\]
*676 ANTENNA_fpga_top_gfpga_pad_GPIO_PAD_in\[39\]
*677 ANTENNA_fpga_top_gfpga_pad_GPIO_PAD_in\[3\]
*678 ANTENNA_fpga_top_gfpga_pad_GPIO_PAD_in\[40\]
*679 ANTENNA_fpga_top_gfpga_pad_GPIO_PAD_in\[41\]
*680 ANTENNA_fpga_top_gfpga_pad_GPIO_PAD_in\[42\]
*681 ANTENNA_fpga_top_gfpga_pad_GPIO_PAD_in\[43\]
*682 ANTENNA_fpga_top_gfpga_pad_GPIO_PAD_in\[44\]
*683 ANTENNA_fpga_top_gfpga_pad_GPIO_PAD_in\[45\]
*684 ANTENNA_fpga_top_gfpga_pad_GPIO_PAD_in\[46\]
*685 ANTENNA_fpga_top_gfpga_pad_GPIO_PAD_in\[47\]
*686 ANTENNA_fpga_top_gfpga_pad_GPIO_PAD_in\[48\]
*687 ANTENNA_fpga_top_gfpga_pad_GPIO_PAD_in\[49\]
*688 ANTENNA_fpga_top_gfpga_pad_GPIO_PAD_in\[4\]
*689 ANTENNA_fpga_top_gfpga_pad_GPIO_PAD_in\[50\]
*690 ANTENNA_fpga_top_gfpga_pad_GPIO_PAD_in\[51\]
*691 ANTENNA_fpga_top_gfpga_pad_GPIO_PAD_in\[52\]
*692 ANTENNA_fpga_top_gfpga_pad_GPIO_PAD_in\[53\]
*693 ANTENNA_fpga_top_gfpga_pad_GPIO_PAD_in\[54\]
*694 ANTENNA_fpga_top_gfpga_pad_GPIO_PAD_in\[55\]
*695 ANTENNA_fpga_top_gfpga_pad_GPIO_PAD_in\[56\]
*696 ANTENNA_fpga_top_gfpga_pad_GPIO_PAD_in\[57\]
*697 ANTENNA_fpga_top_gfpga_pad_GPIO_PAD_in\[58\]
*698 ANTENNA_fpga_top_gfpga_pad_GPIO_PAD_in\[59\]
*699 ANTENNA_fpga_top_gfpga_pad_GPIO_PAD_in\[5\]
*700 ANTENNA_fpga_top_gfpga_pad_GPIO_PAD_in\[60\]
*701 ANTENNA_fpga_top_gfpga_pad_GPIO_PAD_in\[61\]
*702 ANTENNA_fpga_top_gfpga_pad_GPIO_PAD_in\[62\]
*703 ANTENNA_fpga_top_gfpga_pad_GPIO_PAD_in\[63\]
*704 ANTENNA_fpga_top_gfpga_pad_GPIO_PAD_in\[6\]
*705 ANTENNA_fpga_top_gfpga_pad_GPIO_PAD_in\[7\]
*706 ANTENNA_fpga_top_gfpga_pad_GPIO_PAD_in\[8\]
*707 ANTENNA_fpga_top_gfpga_pad_GPIO_PAD_in\[9\]
*708 ANTENNA_fpga_top_pReset
*709 ANTENNA_fpga_top_prog_clk
*710 ANTENNA_fpga_top_reset
*711 ANTENNA_fpga_top_set
*712 FILLER_0_1005
*713 FILLER_0_1009
*714 FILLER_0_1021
*715 FILLER_0_1033
*716 FILLER_0_1037
*717 FILLER_0_1049
*718 FILLER_0_1061
*719 FILLER_0_1065
*720 FILLER_0_1077
*721 FILLER_0_1089
*722 FILLER_0_109
*723 FILLER_0_1093
*724 FILLER_0_1105
*725 FILLER_0_1117
*726 FILLER_0_1121
*727 FILLER_0_113
*728 FILLER_0_1133
*729 FILLER_0_1145
*730 FILLER_0_1149
*731 FILLER_0_1161
*732 FILLER_0_1173
*733 FILLER_0_1177
*734 FILLER_0_1189
*735 FILLER_0_1201
*736 FILLER_0_1205
*737 FILLER_0_1217
*738 FILLER_0_1229
*739 FILLER_0_1233
*740 FILLER_0_1245
*741 FILLER_0_125
*742 FILLER_0_1257
*743 FILLER_0_1261
*744 FILLER_0_1273
*745 FILLER_0_1285
*746 FILLER_0_1289
*747 FILLER_0_1301
*748 FILLER_0_1313
*749 FILLER_0_1317
*750 FILLER_0_1329
*751 FILLER_0_1341
*752 FILLER_0_1345
*753 FILLER_0_1357
*754 FILLER_0_1369
*755 FILLER_0_137
*756 FILLER_0_1373
*757 FILLER_0_1385
*758 FILLER_0_1397
*759 FILLER_0_1401
*760 FILLER_0_141
*761 FILLER_0_1413
*762 FILLER_0_1425
*763 FILLER_0_1429
*764 FILLER_0_1441
*765 FILLER_0_1453
*766 FILLER_0_1457
*767 FILLER_0_1469
*768 FILLER_0_1481
*769 FILLER_0_1485
*770 FILLER_0_1497
*771 FILLER_0_15
*772 FILLER_0_1509
*773 FILLER_0_1513
*774 FILLER_0_1525
*775 FILLER_0_153
*776 FILLER_0_1537
*777 FILLER_0_1541
*778 FILLER_0_1553
*779 FILLER_0_1565
*780 FILLER_0_1569
*781 FILLER_0_1581
*782 FILLER_0_1593
*783 FILLER_0_1597
*784 FILLER_0_1609
*785 FILLER_0_1621
*786 FILLER_0_1625
*787 FILLER_0_1637
*788 FILLER_0_1649
*789 FILLER_0_165
*790 FILLER_0_1653
*791 FILLER_0_1665
*792 FILLER_0_1677
*793 FILLER_0_1681
*794 FILLER_0_169
*795 FILLER_0_1693
*796 FILLER_0_1705
*797 FILLER_0_1709
*798 FILLER_0_1721
*799 FILLER_0_1733
*800 FILLER_0_1737
*801 FILLER_0_1749
*802 FILLER_0_1761
*803 FILLER_0_1765
*804 FILLER_0_1777
*805 FILLER_0_1789
*806 FILLER_0_1793
*807 FILLER_0_1805
*808 FILLER_0_181
*809 FILLER_0_1817
*810 FILLER_0_1821
*811 FILLER_0_1833
*812 FILLER_0_1845
*813 FILLER_0_1849
*814 FILLER_0_1861
*815 FILLER_0_1873
*816 FILLER_0_1877
*817 FILLER_0_1889
*818 FILLER_0_1901
*819 FILLER_0_1905
*820 FILLER_0_1917
*821 FILLER_0_1929
*822 FILLER_0_193
*823 FILLER_0_1933
*824 FILLER_0_1945
*825 FILLER_0_1957
*826 FILLER_0_1961
*827 FILLER_0_197
*828 FILLER_0_1973
*829 FILLER_0_1985
*830 FILLER_0_1989
*831 FILLER_0_2001
*832 FILLER_0_2013
*833 FILLER_0_2017
*834 FILLER_0_2029
*835 FILLER_0_2041
*836 FILLER_0_2045
*837 FILLER_0_2057
*838 FILLER_0_2069
*839 FILLER_0_2073
*840 FILLER_0_2085
*841 FILLER_0_209
*842 FILLER_0_2097
*843 FILLER_0_2101
*844 FILLER_0_2113
*845 FILLER_0_2125
*846 FILLER_0_2129
*847 FILLER_0_2141
*848 FILLER_0_2153
*849 FILLER_0_2157
*850 FILLER_0_2169
*851 FILLER_0_2181
*852 FILLER_0_2185
*853 FILLER_0_2197
*854 FILLER_0_2209
*855 FILLER_0_221
*856 FILLER_0_2213
*857 FILLER_0_2225
*858 FILLER_0_2237
*859 FILLER_0_2241
*860 FILLER_0_225
*861 FILLER_0_2253
*862 FILLER_0_2265
*863 FILLER_0_2269
*864 FILLER_0_2281
*865 FILLER_0_2293
*866 FILLER_0_2297
*867 FILLER_0_2309
*868 FILLER_0_2321
*869 FILLER_0_2325
*870 FILLER_0_2337
*871 FILLER_0_2349
*872 FILLER_0_2353
*873 FILLER_0_2365
*874 FILLER_0_237
*875 FILLER_0_2377
*876 FILLER_0_2381
*877 FILLER_0_2393
*878 FILLER_0_2405
*879 FILLER_0_2409
*880 FILLER_0_2421
*881 FILLER_0_2433
*882 FILLER_0_2437
*883 FILLER_0_2449
*884 FILLER_0_2461
*885 FILLER_0_2465
*886 FILLER_0_2477
*887 FILLER_0_2489
*888 FILLER_0_249
*889 FILLER_0_2493
*890 FILLER_0_2505
*891 FILLER_0_2517
*892 FILLER_0_2521
*893 FILLER_0_253
*894 FILLER_0_2533
*895 FILLER_0_2545
*896 FILLER_0_2549
*897 FILLER_0_2561
*898 FILLER_0_2573
*899 FILLER_0_2577
*900 FILLER_0_2589
*901 FILLER_0_2601
*902 FILLER_0_2605
*903 FILLER_0_2617
*904 FILLER_0_2629
*905 FILLER_0_2633
*906 FILLER_0_2645
*907 FILLER_0_265
*908 FILLER_0_2657
*909 FILLER_0_2661
*910 FILLER_0_2673
*911 FILLER_0_2685
*912 FILLER_0_2689
*913 FILLER_0_27
*914 FILLER_0_2701
*915 FILLER_0_2713
*916 FILLER_0_2717
*917 FILLER_0_2729
*918 FILLER_0_2741
*919 FILLER_0_2745
*920 FILLER_0_2757
*921 FILLER_0_2769
*922 FILLER_0_277
*923 FILLER_0_2773
*924 FILLER_0_2785
*925 FILLER_0_2797
*926 FILLER_0_2801
*927 FILLER_0_281
*928 FILLER_0_2813
*929 FILLER_0_2825
*930 FILLER_0_2829
*931 FILLER_0_2841
*932 FILLER_0_2853
*933 FILLER_0_2857
*934 FILLER_0_2869
*935 FILLER_0_2881
*936 FILLER_0_2885
*937 FILLER_0_2897
*938 FILLER_0_29
*939 FILLER_0_2909
*940 FILLER_0_2913
*941 FILLER_0_2925
*942 FILLER_0_293
*943 FILLER_0_2937
*944 FILLER_0_2941
*945 FILLER_0_2953
*946 FILLER_0_2965
*947 FILLER_0_2969
*948 FILLER_0_2981
*949 FILLER_0_2993
*950 FILLER_0_2997
*951 FILLER_0_3
*952 FILLER_0_3009
*953 FILLER_0_3021
*954 FILLER_0_3025
*955 FILLER_0_3037
*956 FILLER_0_3049
*957 FILLER_0_305
*958 FILLER_0_3053
*959 FILLER_0_3065
*960 FILLER_0_3077
*961 FILLER_0_3081
*962 FILLER_0_309
*963 FILLER_0_3093
*964 FILLER_0_3105
*965 FILLER_0_3109
*966 FILLER_0_3121
*967 FILLER_0_3133
*968 FILLER_0_3137
*969 FILLER_0_3149
*970 FILLER_0_3161
*971 FILLER_0_3165
*972 FILLER_0_3177
*973 FILLER_0_3189
*974 FILLER_0_3193
*975 FILLER_0_3205
*976 FILLER_0_321
*977 FILLER_0_3217
*978 FILLER_0_3221
*979 FILLER_0_3233
*980 FILLER_0_3245
*981 FILLER_0_3249
*982 FILLER_0_3261
*983 FILLER_0_3273
*984 FILLER_0_3277
*985 FILLER_0_3289
*986 FILLER_0_3301
*987 FILLER_0_3305
*988 FILLER_0_3317
*989 FILLER_0_3329
*990 FILLER_0_333
*991 FILLER_0_3333
*992 FILLER_0_3345
*993 FILLER_0_3357
*994 FILLER_0_3361
*995 FILLER_0_337
*996 FILLER_0_3373
*997 FILLER_0_3385
*998 FILLER_0_3389
*999 FILLER_0_3401
*1000 FILLER_0_3413
*1001 FILLER_0_3417
*1002 FILLER_0_3429
*1003 FILLER_0_3441
*1004 FILLER_0_3445
*1005 FILLER_0_3457
*1006 FILLER_0_3469
*1007 FILLER_0_3473
*1008 FILLER_0_3485
*1009 FILLER_0_349
*1010 FILLER_0_3497
*1011 FILLER_0_3501
*1012 FILLER_0_3513
*1013 FILLER_0_3525
*1014 FILLER_0_3529
*1015 FILLER_0_3541
*1016 FILLER_0_3553
*1017 FILLER_0_3557
*1018 FILLER_0_3569
*1019 FILLER_0_3581
*1020 FILLER_0_3585
*1021 FILLER_0_3597
*1022 FILLER_0_3609
*1023 FILLER_0_361
*1024 FILLER_0_3613
*1025 FILLER_0_3625
*1026 FILLER_0_3637
*1027 FILLER_0_3641
*1028 FILLER_0_365
*1029 FILLER_0_3653
*1030 FILLER_0_3665
*1031 FILLER_0_3669
*1032 FILLER_0_3681
*1033 FILLER_0_3693
*1034 FILLER_0_3697
*1035 FILLER_0_3709
*1036 FILLER_0_3721
*1037 FILLER_0_3725
*1038 FILLER_0_3737
*1039 FILLER_0_3749
*1040 FILLER_0_3753
*1041 FILLER_0_3765
*1042 FILLER_0_377
*1043 FILLER_0_3777
*1044 FILLER_0_3781
*1045 FILLER_0_3793
*1046 FILLER_0_3805
*1047 FILLER_0_3809
*1048 FILLER_0_3821
*1049 FILLER_0_3833
*1050 FILLER_0_3837
*1051 FILLER_0_3849
*1052 FILLER_0_3861
*1053 FILLER_0_3865
*1054 FILLER_0_3877
*1055 FILLER_0_3889
*1056 FILLER_0_389
*1057 FILLER_0_3893
*1058 FILLER_0_3905
*1059 FILLER_0_3917
*1060 FILLER_0_3921
*1061 FILLER_0_393
*1062 FILLER_0_3933
*1063 FILLER_0_3945
*1064 FILLER_0_3949
*1065 FILLER_0_3961
*1066 FILLER_0_3973
*1067 FILLER_0_3977
*1068 FILLER_0_3989
*1069 FILLER_0_4001
*1070 FILLER_0_4005
*1071 FILLER_0_4017
*1072 FILLER_0_4029
*1073 FILLER_0_4033
*1074 FILLER_0_4045
*1075 FILLER_0_405
*1076 FILLER_0_4057
*1077 FILLER_0_4061
*1078 FILLER_0_4073
*1079 FILLER_0_4085
*1080 FILLER_0_4089
*1081 FILLER_0_41
*1082 FILLER_0_4101
*1083 FILLER_0_4113
*1084 FILLER_0_4117
*1085 FILLER_0_4129
*1086 FILLER_0_4141
*1087 FILLER_0_4145
*1088 FILLER_0_4157
*1089 FILLER_0_4169
*1090 FILLER_0_417
*1091 FILLER_0_4173
*1092 FILLER_0_4185
*1093 FILLER_0_4197
*1094 FILLER_0_4201
*1095 FILLER_0_421
*1096 FILLER_0_4213
*1097 FILLER_0_4225
*1098 FILLER_0_4229
*1099 FILLER_0_4241
*1100 FILLER_0_4253
*1101 FILLER_0_4257
*1102 FILLER_0_4269
*1103 FILLER_0_4281
*1104 FILLER_0_4285
*1105 FILLER_0_4297
*1106 FILLER_0_4309
*1107 FILLER_0_4313
*1108 FILLER_0_4325
*1109 FILLER_0_433
*1110 FILLER_0_4337
*1111 FILLER_0_4341
*1112 FILLER_0_4353
*1113 FILLER_0_4365
*1114 FILLER_0_4369
*1115 FILLER_0_4381
*1116 FILLER_0_4393
*1117 FILLER_0_4397
*1118 FILLER_0_4409
*1119 FILLER_0_4421
*1120 FILLER_0_4425
*1121 FILLER_0_4437
*1122 FILLER_0_4449
*1123 FILLER_0_445
*1124 FILLER_0_4453
*1125 FILLER_0_4465
*1126 FILLER_0_4477
*1127 FILLER_0_4481
*1128 FILLER_0_449
*1129 FILLER_0_4493
*1130 FILLER_0_4505
*1131 FILLER_0_4509
*1132 FILLER_0_4521
*1133 FILLER_0_4533
*1134 FILLER_0_4537
*1135 FILLER_0_4549
*1136 FILLER_0_4561
*1137 FILLER_0_4565
*1138 FILLER_0_4577
*1139 FILLER_0_4589
*1140 FILLER_0_4593
*1141 FILLER_0_4605
*1142 FILLER_0_461
*1143 FILLER_0_4617
*1144 FILLER_0_4621
*1145 FILLER_0_4633
*1146 FILLER_0_4645
*1147 FILLER_0_4649
*1148 FILLER_0_4661
*1149 FILLER_0_4673
*1150 FILLER_0_4677
*1151 FILLER_0_4689
*1152 FILLER_0_4701
*1153 FILLER_0_4705
*1154 FILLER_0_4717
*1155 FILLER_0_4729
*1156 FILLER_0_473
*1157 FILLER_0_4733
*1158 FILLER_0_4745
*1159 FILLER_0_4757
*1160 FILLER_0_4761
*1161 FILLER_0_477
*1162 FILLER_0_4773
*1163 FILLER_0_4785
*1164 FILLER_0_4789
*1165 FILLER_0_4801
*1166 FILLER_0_4813
*1167 FILLER_0_4817
*1168 FILLER_0_4829
*1169 FILLER_0_4841
*1170 FILLER_0_4845
*1171 FILLER_0_4857
*1172 FILLER_0_4869
*1173 FILLER_0_4873
*1174 FILLER_0_4885
*1175 FILLER_0_489
*1176 FILLER_0_4897
*1177 FILLER_0_4901
*1178 FILLER_0_4913
*1179 FILLER_0_4925
*1180 FILLER_0_4929
*1181 FILLER_0_4941
*1182 FILLER_0_4953
*1183 FILLER_0_4957
*1184 FILLER_0_4969
*1185 FILLER_0_4981
*1186 FILLER_0_4985
*1187 FILLER_0_4997
*1188 FILLER_0_5009
*1189 FILLER_0_501
*1190 FILLER_0_5013
*1191 FILLER_0_5025
*1192 FILLER_0_5037
*1193 FILLER_0_5041
*1194 FILLER_0_505
*1195 FILLER_0_5053
*1196 FILLER_0_5065
*1197 FILLER_0_5069
*1198 FILLER_0_5081
*1199 FILLER_0_5093
*1200 FILLER_0_5097
*1201 FILLER_0_5109
*1202 FILLER_0_5121
*1203 FILLER_0_5125
*1204 FILLER_0_5137
*1205 FILLER_0_5149
*1206 FILLER_0_5153
*1207 FILLER_0_5165
*1208 FILLER_0_517
*1209 FILLER_0_5177
*1210 FILLER_0_5181
*1211 FILLER_0_5193
*1212 FILLER_0_5205
*1213 FILLER_0_5209
*1214 FILLER_0_5221
*1215 FILLER_0_5233
*1216 FILLER_0_5237
*1217 FILLER_0_5249
*1218 FILLER_0_5261
*1219 FILLER_0_5265
*1220 FILLER_0_5277
*1221 FILLER_0_5289
*1222 FILLER_0_529
*1223 FILLER_0_5293
*1224 FILLER_0_53
*1225 FILLER_0_5305
*1226 FILLER_0_5317
*1227 FILLER_0_5321
*1228 FILLER_0_533
*1229 FILLER_0_5333
*1230 FILLER_0_5345
*1231 FILLER_0_5349
*1232 FILLER_0_5361
*1233 FILLER_0_5373
*1234 FILLER_0_5377
*1235 FILLER_0_5389
*1236 FILLER_0_5401
*1237 FILLER_0_5405
*1238 FILLER_0_5417
*1239 FILLER_0_5429
*1240 FILLER_0_5433
*1241 FILLER_0_5445
*1242 FILLER_0_545
*1243 FILLER_0_5457
*1244 FILLER_0_5461
*1245 FILLER_0_5473
*1246 FILLER_0_5485
*1247 FILLER_0_5489
*1248 FILLER_0_5501
*1249 FILLER_0_5513
*1250 FILLER_0_5517
*1251 FILLER_0_5529
*1252 FILLER_0_5541
*1253 FILLER_0_5545
*1254 FILLER_0_5557
*1255 FILLER_0_5569
*1256 FILLER_0_557
*1257 FILLER_0_5573
*1258 FILLER_0_5585
*1259 FILLER_0_5597
*1260 FILLER_0_5601
*1261 FILLER_0_561
*1262 FILLER_0_5613
*1263 FILLER_0_5625
*1264 FILLER_0_5629
*1265 FILLER_0_5641
*1266 FILLER_0_5653
*1267 FILLER_0_5657
*1268 FILLER_0_5669
*1269 FILLER_0_5681
*1270 FILLER_0_5685
*1271 FILLER_0_5697
*1272 FILLER_0_57
*1273 FILLER_0_5709
*1274 FILLER_0_5713
*1275 FILLER_0_5725
*1276 FILLER_0_573
*1277 FILLER_0_5737
*1278 FILLER_0_5741
*1279 FILLER_0_5753
*1280 FILLER_0_5765
*1281 FILLER_0_5769
*1282 FILLER_0_5781
*1283 FILLER_0_5793
*1284 FILLER_0_5797
*1285 FILLER_0_5809
*1286 FILLER_0_5821
*1287 FILLER_0_5825
*1288 FILLER_0_5837
*1289 FILLER_0_5849
*1290 FILLER_0_585
*1291 FILLER_0_5853
*1292 FILLER_0_5865
*1293 FILLER_0_5877
*1294 FILLER_0_5881
*1295 FILLER_0_589
*1296 FILLER_0_5893
*1297 FILLER_0_5905
*1298 FILLER_0_5909
*1299 FILLER_0_5921
*1300 FILLER_0_5933
*1301 FILLER_0_5937
*1302 FILLER_0_5949
*1303 FILLER_0_5961
*1304 FILLER_0_5965
*1305 FILLER_0_5977
*1306 FILLER_0_5989
*1307 FILLER_0_5993
*1308 FILLER_0_6005
*1309 FILLER_0_601
*1310 FILLER_0_6017
*1311 FILLER_0_6021
*1312 FILLER_0_6033
*1313 FILLER_0_6045
*1314 FILLER_0_6049
*1315 FILLER_0_6061
*1316 FILLER_0_6073
*1317 FILLER_0_6077
*1318 FILLER_0_6089
*1319 FILLER_0_6101
*1320 FILLER_0_6105
*1321 FILLER_0_6117
*1322 FILLER_0_6129
*1323 FILLER_0_613
*1324 FILLER_0_6133
*1325 FILLER_0_6145
*1326 FILLER_0_6157
*1327 FILLER_0_6161
*1328 FILLER_0_617
*1329 FILLER_0_6173
*1330 FILLER_0_6185
*1331 FILLER_0_6189
*1332 FILLER_0_6201
*1333 FILLER_0_6213
*1334 FILLER_0_6217
*1335 FILLER_0_6229
*1336 FILLER_0_6241
*1337 FILLER_0_6245
*1338 FILLER_0_6257
*1339 FILLER_0_6269
*1340 FILLER_0_6273
*1341 FILLER_0_6285
*1342 FILLER_0_629
*1343 FILLER_0_6297
*1344 FILLER_0_6301
*1345 FILLER_0_6313
*1346 FILLER_0_6319
*1347 FILLER_0_641
*1348 FILLER_0_645
*1349 FILLER_0_657
*1350 FILLER_0_669
*1351 FILLER_0_673
*1352 FILLER_0_685
*1353 FILLER_0_69
*1354 FILLER_0_697
*1355 FILLER_0_701
*1356 FILLER_0_713
*1357 FILLER_0_725
*1358 FILLER_0_729
*1359 FILLER_0_741
*1360 FILLER_0_753
*1361 FILLER_0_757
*1362 FILLER_0_769
*1363 FILLER_0_781
*1364 FILLER_0_785
*1365 FILLER_0_797
*1366 FILLER_0_809
*1367 FILLER_0_81
*1368 FILLER_0_813
*1369 FILLER_0_825
*1370 FILLER_0_837
*1371 FILLER_0_841
*1372 FILLER_0_85
*1373 FILLER_0_853
*1374 FILLER_0_865
*1375 FILLER_0_869
*1376 FILLER_0_881
*1377 FILLER_0_893
*1378 FILLER_0_897
*1379 FILLER_0_909
*1380 FILLER_0_921
*1381 FILLER_0_925
*1382 FILLER_0_937
*1383 FILLER_0_949
*1384 FILLER_0_953
*1385 FILLER_0_965
*1386 FILLER_0_97
*1387 FILLER_0_977
*1388 FILLER_0_981
*1389 FILLER_0_993
*1390 FILLER_1000_15
*1391 FILLER_1000_27
*1392 FILLER_1000_29
*1393 FILLER_1000_3
*1394 FILLER_1000_41
*1395 FILLER_1000_49
*1396 FILLER_1000_6207
*1397 FILLER_1000_6219
*1398 FILLER_1000_6231
*1399 FILLER_1000_6233
*1400 FILLER_1000_6245
*1401 FILLER_1000_6257
*1402 FILLER_1000_6269
*1403 FILLER_1000_6281
*1404 FILLER_1000_6287
*1405 FILLER_1000_6289
*1406 FILLER_1000_6301
*1407 FILLER_1000_6313
*1408 FILLER_1000_6319
*1409 FILLER_1001_15
*1410 FILLER_1001_27
*1411 FILLER_1001_3
*1412 FILLER_1001_39
*1413 FILLER_1001_47
*1414 FILLER_1001_6207
*1415 FILLER_1001_6219
*1416 FILLER_1001_6231
*1417 FILLER_1001_6243
*1418 FILLER_1001_6255
*1419 FILLER_1001_6259
*1420 FILLER_1001_6261
*1421 FILLER_1001_6273
*1422 FILLER_1001_6285
*1423 FILLER_1001_6297
*1424 FILLER_1001_6309
*1425 FILLER_1001_6315
*1426 FILLER_1001_6317
*1427 FILLER_1002_15
*1428 FILLER_1002_27
*1429 FILLER_1002_29
*1430 FILLER_1002_3
*1431 FILLER_1002_41
*1432 FILLER_1002_49
*1433 FILLER_1002_6207
*1434 FILLER_1002_6219
*1435 FILLER_1002_6231
*1436 FILLER_1002_6233
*1437 FILLER_1002_6245
*1438 FILLER_1002_6257
*1439 FILLER_1002_6269
*1440 FILLER_1002_6281
*1441 FILLER_1002_6287
*1442 FILLER_1002_6289
*1443 FILLER_1002_6301
*1444 FILLER_1002_6313
*1445 FILLER_1002_6319
*1446 FILLER_1003_15
*1447 FILLER_1003_27
*1448 FILLER_1003_3
*1449 FILLER_1003_39
*1450 FILLER_1003_47
*1451 FILLER_1003_6207
*1452 FILLER_1003_6219
*1453 FILLER_1003_6231
*1454 FILLER_1003_6243